DBU_Tripeptide.sdf
  ChemDraw12202312192D

 21 20  0  0  1  0  0  0  0  0999 V2000
   -0.7145   -0.4125    0.0000 N   0  0  0  0  0  0  0  0  0  0  0  0
    0.0000   -0.0000    0.0000 C   0  0  0  0  0  0  0  0  0  0  0  0
    0.7145   -0.4125    0.0000 C   0  0  0  0  0  0  0  0  0  0  0  0
    0.0000    0.8250    0.0000 C   0  0  0  0  0  0  0  0  0  0  0  0
   -1.4289   -0.0000    0.0000 C   0  0  0  0  0  0  0  0  0  0  0  0
    1.4289   -0.0000    0.0000 N   0  0  0  0  0  0  0  0  0  0  0  0
    0.7145   -1.2375    0.0000 O   0  0  0  0  0  0  0  0  0  0  0  0
   -1.4289    0.8250    0.0000 O   0  0  0  0  0  0  0  0  0  0  0  0
   -2.1435   -0.4125    0.0000 C   0  0  0  0  0  0  0  0  0  0  0  0
    2.1435   -0.4125    0.0000 C   0  0  0  0  0  0  0  0  0  0  0  0
    2.8580   -0.0000    0.0000 C   0  0  0  0  0  0  0  0  0  0  0  0
    3.5725   -0.4125    0.0000 N   0  0  0  0  0  0  0  0  0  0  0  0
    2.1435   -1.2375    0.0000 C   0  0  0  0  0  0  0  0  0  0  0  0
   -2.8580   -0.0000    0.0000 N   0  0  0  0  0  0  0  0  0  0  0  0
   -3.5725   -0.4125    0.0000 C   0  0  0  0  0  0  0  0  0  0  0  0
   -2.1435   -1.2375    0.0000 C   0  0  0  0  0  0  0  0  0  0  0  0
    2.8580    0.8250    0.0000 O   0  0  0  0  0  0  0  0  0  0  0  0
   -4.2869    0.0001    0.0000 C   0  0  0  0  0  0  0  0  0  0  0  0
   -3.5726   -1.2375    0.0000 O   0  0  0  0  0  0  0  0  0  0  0  0
    4.2869    0.0001    0.0000 C   0  0  0  0  0  0  0  0  0  0  0  0
   -0.7145    1.2375    0.0000 C   0  0  0  0  0  0  0  0  0  0  0  0
  1  2  1  0      
  2  3  1  0      
  2  4  2  0      
  1  5  1  0      
  3  6  1  0      
  3  7  2  0      
  5  8  2  0      
  5  9  1  0      
  6 10  1  0      
 10 11  1  0      
 11 12  1  0      
 10 13  1  6      
  9 14  1  0      
 14 15  1  0      
  9 16  1  6      
 11 17  2  0      
 15 18  1  0      
 15 19  2  0      
 12 20  1  0      
  4 21  1  0      
M  END
$$$$
