DBU_Tripeptide.sdf
CTcorina_a12202312243D 1   1.00000     0.00000 
CORINA 4.3.0 0026  30.10.2019
 43 42  0  0  1  0  0  0  0  0999 V2000
   -1.1997    3.1337   -0.0653 N   0  0  0  0  0  0  0  0  0  0  0  0
   -1.1791    1.7356    0.0236 C   0  0  0  0  0  0  0  0  0  0  0  0
   -2.4235    0.9962    0.3094 C   0  0  0  0  0  0  0  0  0  0  0  0
   -0.0335    1.0724   -0.1502 C   0  0  0  0  0  0  0  0  0  0  0  0
   -2.0034    3.7402   -0.9612 C   0  0  0  0  0  0  0  0  0  0  0  0
   -2.4037   -0.3487    0.3949 N   0  0  0  0  0  0  0  0  0  0  0  0
   -3.4668    1.6001    0.4677 O   0  0  0  0  0  0  0  0  0  0  0  0
   -2.6413    3.0762   -1.7508 O   0  0  0  0  0  0  0  0  0  0  0  0
   -2.1096    5.2433   -0.9819 C   0  0  0  0  0  0  0  0  0  0  0  0
   -3.6393   -1.0829    0.6787 C   0  0  0  0  0  0  0  0  0  0  0  0
   -3.3022   -2.4068    1.3150 C   0  0  0  0  0  0  0  0  0  0  0  0
   -4.2879   -3.2566    1.6650 N   0  0  0  0  0  0  0  0  0  0  0  0
   -4.4007   -1.3236   -0.6264 C   0  0  0  0  0  0  0  0  0  0  0  0
   -3.0389    5.6527   -2.0378 N   0  0  0  0  0  0  0  0  0  0  0  0
   -2.9340    6.8776   -2.5901 C   0  0  0  0  0  0  0  0  0  0  0  0
   -2.6257    5.7368    0.3712 C   0  0  0  0  0  0  0  0  0  0  0  0
   -2.1438   -2.7074    1.5120 O   0  0  0  0  0  0  0  0  0  0  0  0
   -3.8900    7.2988   -3.6763 C   0  0  0  0  0  0  0  0  0  0  0  0
   -2.0704    7.6410   -2.2130 O   0  0  0  0  0  0  0  0  0  0  0  0
   -3.9601   -4.5436    2.2836 C   0  0  0  0  0  0  0  0  0  0  0  0
    1.2563    1.8307   -0.3303 C   0  0  0  0  0  0  0  0  0  0  0  0
   -0.6355    3.6651    0.5179 H   0  0  0  0  0  0  0  0  0  0  0  0
   -0.0317   -0.0075   -0.1662 H   0  0  0  0  0  0  0  0  0  0  0  0
   -1.5714   -0.8306    0.2686 H   0  0  0  0  0  0  0  0  0  0  0  0
   -1.1272    5.6743   -1.1753 H   0  0  0  0  0  0  0  0  0  0  0  0
   -4.2600   -0.5002    1.3593 H   0  0  0  0  0  0  0  0  0  0  0  0
   -5.2143   -3.0162    1.5074 H   0  0  0  0  0  0  0  0  0  0  0  0
   -5.3200   -1.8698   -0.4153 H   0  0  0  0  0  0  0  0  0  0  0  0
   -4.6445   -0.3661   -1.0867 H   0  0  0  0  0  0  0  0  0  0  0  0
   -3.7800   -1.9063   -1.3071 H   0  0  0  0  0  0  0  0  0  0  0  0
   -3.7297    5.0422   -2.3395 H   0  0  0  0  0  0  0  0  0  0  0  0
   -1.9342    5.4322    1.1569 H   0  0  0  0  0  0  0  0  0  0  0  0
   -2.7025    6.8240    0.3563 H   0  0  0  0  0  0  0  0  0  0  0  0
   -3.6080    5.3058    0.5646 H   0  0  0  0  0  0  0  0  0  0  0  0
   -4.5892    6.4876   -3.8796 H   0  0  0  0  0  0  0  0  0  0  0  0
   -4.4417    8.1814   -3.3527 H   0  0  0  0  0  0  0  0  0  0  0  0
   -3.3306    7.5319   -4.5823 H   0  0  0  0  0  0  0  0  0  0  0  0
   -4.8794   -5.0898    2.4947 H   0  0  0  0  0  0  0  0  0  0  0  0
   -3.3394   -5.1263    1.6030 H   0  0  0  0  0  0  0  0  0  0  0  0
   -3.4177   -4.3721    3.2134 H   0  0  0  0  0  0  0  0  0  0  0  0
    1.7396    1.5116   -1.2537 H   0  0  0  0  0  0  0  0  0  0  0  0
    1.0457    2.8990   -0.3809 H   0  0  0  0  0  0  0  0  0  0  0  0
    1.9166    1.6302    0.5134 H   0  0  0  0  0  0  0  0  0  0  0  0
  1  2  1  0  0  0  0
  1  5  1  0  0  0  0
  1 22  1  0  0  0  0
  2  3  1  0  0  0  0
  2  4  2  0  0  0  0
  3  6  1  0  0  0  0
  3  7  2  0  0  0  0
  4 21  1  0  0  0  0
  4 23  1  0  0  0  0
  5  8  2  0  0  0  0
  5  9  1  0  0  0  0
  6 10  1  0  0  0  0
  6 24  1  0  0  0  0
  9 14  1  0  0  0  0
  9 16  1  0  0  0  0
  9 25  1  0  0  0  0
 10 11  1  0  0  0  0
 10 13  1  0  0  0  0
 10 26  1  0  0  0  0
 11 12  1  0  0  0  0
 11 17  2  0  0  0  0
 12 20  1  0  0  0  0
 12 27  1  0  0  0  0
 13 28  1  0  0  0  0
 13 29  1  0  0  0  0
 13 30  1  0  0  0  0
 14 15  1  0  0  0  0
 14 31  1  0  0  0  0
 15 18  1  0  0  0  0
 15 19  2  0  0  0  0
 16 32  1  0  0  0  0
 16 33  1  0  0  0  0
 16 34  1  0  0  0  0
 18 35  1  0  0  0  0
 18 36  1  0  0  0  0
 18 37  1  0  0  0  0
 20 38  1  0  0  0  0
 20 39  1  0  0  0  0
 20 40  1  0  0  0  0
 21 41  1  0  0  0  0
 21 42  1  0  0  0  0
 21 43  1  0  0  0  0
M  END
$$$$
