DBU_Tripeptide.sdf
  PyMOL2.2          3D                             0

 43 42  0  0  0  0  0  0  0  0999 V2000
   -2.7574    3.5319    1.8538 N   0  0  0  0  0  0  0  0  0  0  0  0
   -2.6176    2.2052    2.2819 C   0  0  0  0  0  0  0  0  0  0  0  0
   -3.4220    1.1391    1.6548 C   0  0  0  0  0  0  0  0  0  0  0  0
   -1.7565    1.9056    3.2572 C   0  0  0  0  0  0  0  0  0  0  0  0
   -1.6637    4.2892    1.6378 C   0  0  0  0  0  0  0  0  0  0  0  0
   -2.8406   -0.0243    1.3013 N   0  0  0  0  0  0  0  0  0  0  0  0
   -4.6094    1.3100    1.4569 O   0  0  0  0  0  0  0  0  0  0  0  0
   -0.5625    3.8526    1.8990 O   0  0  0  0  0  0  0  0  0  0  0  0
   -1.8087    5.6782    1.0715 C   0  0  0  0  0  0  0  0  0  0  0  0
   -3.6393   -1.0829    0.6787 C   0  0  0  0  0  0  0  0  0  0  0  0
   -3.3022   -2.4068    1.3150 C   0  0  0  0  0  0  0  0  0  0  0  0
   -4.2879   -3.2566    1.6650 N   0  0  0  0  0  0  0  0  0  0  0  0
   -3.3285   -1.1428   -0.8182 C   0  0  0  0  0  0  0  0  0  0  0  0
   -0.9577    6.6035    1.8237 N   0  0  0  0  0  0  0  0  0  0  0  0
   -1.4420    7.7995    2.2128 C   0  0  0  0  0  0  0  0  0  0  0  0
   -1.3853    5.6764   -0.3987 C   0  0  0  0  0  0  0  0  0  0  0  0
   -2.1438   -2.7074    1.5120 O   0  0  0  0  0  0  0  0  0  0  0  0
   -0.5665    8.7514    2.9866 C   0  0  0  0  0  0  0  0  0  0  0  0
   -2.5823    8.1098    1.9404 O   0  0  0  0  0  0  0  0  0  0  0  0
   -3.9601   -4.5436    2.2836 C   0  0  0  0  0  0  0  0  0  0  0  0
   -1.0176    3.0060    3.9743 C   0  0  0  0  0  0  0  0  0  0  0  0
   -3.6415    3.9055    1.7131 H   0  0  0  0  0  0  0  0  0  0  0  0
   -1.5860    0.8744    3.5292 H   0  0  0  0  0  0  0  0  0  0  0  0
   -1.8933   -0.1608    1.4591 H   0  0  0  0  0  0  0  0  0  0  0  0
   -2.8486    5.9957    1.1499 H   0  0  0  0  0  0  0  0  0  0  0  0
   -4.6988   -0.8704    0.8216 H   0  0  0  0  0  0  0  0  0  0  0  0
   -5.2143   -3.0162    1.5074 H   0  0  0  0  0  0  0  0  0  0  0  0
   -3.9227   -1.9303   -1.2815 H   0  0  0  0  0  0  0  0  0  0  0  0
   -3.5722   -0.1852   -1.2785 H   0  0  0  0  0  0  0  0  0  0  0  0
   -2.2690   -1.3553   -0.9612 H   0  0  0  0  0  0  0  0  0  0  0  0
   -0.0456    6.3554    2.0417 H   0  0  0  0  0  0  0  0  0  0  0  0
   -2.0185    4.9879   -0.9583 H   0  0  0  0  0  0  0  0  0  0  0  0
   -1.4902    6.6810   -0.8083 H   0  0  0  0  0  0  0  0  0  0  0  0
   -0.3455    5.3589   -0.4770 H   0  0  0  0  0  0  0  0  0  0  0  0
    0.4157    8.3025    3.1351 H   0  0  0  0  0  0  0  0  0  0  0  0
   -0.4601    9.6820    2.4291 H   0  0  0  0  0  0  0  0  0  0  0  0
   -1.0218    8.9580    3.9551 H   0  0  0  0  0  0  0  0  0  0  0  0
   -4.8794   -5.0898    2.4947 H   0  0  0  0  0  0  0  0  0  0  0  0
   -3.3394   -5.1263    1.6030 H   0  0  0  0  0  0  0  0  0  0  0  0
   -3.4177   -4.3721    3.2134 H   0  0  0  0  0  0  0  0  0  0  0  0
    0.0549    2.8194    3.9193 H   0  0  0  0  0  0  0  0  0  0  0  0
   -1.2445    3.9627    3.5037 H   0  0  0  0  0  0  0  0  0  0  0  0
   -1.3288    3.0321    5.0186 H   0  0  0  0  0  0  0  0  0  0  0  0
  1  2  1  0  0  0  0
  1  5  1  0  0  0  0
  1 22  1  0  0  0  0
  2  3  1  0  0  0  0
  2  4  2  0  0  0  0
  3  6  1  0  0  0  0
  3  7  2  0  0  0  0
  4 21  1  0  0  0  0
  4 23  1  0  0  0  0
  5  8  2  0  0  0  0
  5  9  1  0  0  0  0
  6 10  1  0  0  0  0
  6 24  1  0  0  0  0
  9 14  1  0  0  0  0
  9 16  1  0  0  0  0
  9 25  1  0  0  0  0
 10 11  1  0  0  0  0
 10 13  1  0  0  0  0
 10 26  1  0  0  0  0
 11 12  1  0  0  0  0
 11 17  2  0  0  0  0
 12 20  1  0  0  0  0
 12 27  1  0  0  0  0
 13 28  1  0  0  0  0
 13 29  1  0  0  0  0
 13 30  1  0  0  0  0
 14 15  1  0  0  0  0
 14 31  1  0  0  0  0
 15 18  1  0  0  0  0
 15 19  2  0  0  0  0
 16 32  1  0  0  0  0
 16 33  1  0  0  0  0
 16 34  1  0  0  0  0
 18 35  1  0  0  0  0
 18 36  1  0  0  0  0
 18 37  1  0  0  0  0
 20 38  1  0  0  0  0
 20 39  1  0  0  0  0
 20 40  1  0  0  0  0
 21 41  1  0  0  0  0
 21 42  1  0  0  0  0
 21 43  1  0  0  0  0
M  END
$$$$
