DHA_Tripeptide.sdf
CTcorina_a12202312203D 1   1.00000     0.00000 
CORINA 4.3.0 0026  30.10.2019
 40 39  0  0  1  0  0  0  0  0999 V2000
   -0.0048    0.9686    0.0088 N   0  0  0  0  0  0  0  0  0  0  0  0
   -1.2551    1.5972   -0.0597 C   0  0  0  0  0  0  0  0  0  0  0  0
   -2.4900    0.7930    0.0121 C   0  0  0  0  0  0  0  0  0  0  0  0
   -1.3291    2.9239   -0.1899 C   0  0  0  0  0  0  0  0  0  0  0  0
    0.3331    0.0389   -0.9066 C   0  0  0  0  0  0  0  0  0  0  0  0
   -3.6928    1.3976   -0.0538 N   0  0  0  0  0  0  0  0  0  0  0  0
   -2.4227   -0.4152    0.1306 O   0  0  0  0  0  0  0  0  0  0  0  0
   -0.4740   -0.3115   -1.7415 O   0  0  0  0  0  0  0  0  0  0  0  0
    1.7135   -0.5654   -0.8927 C   0  0  0  0  0  0  0  0  0  0  0  0
   -4.9189    0.5991    0.0174 C   0  0  0  0  0  0  0  0  0  0  0  0
   -6.0407    1.3391   -0.6646 C   0  0  0  0  0  0  0  0  0  0  0  0
   -7.2713    0.7926   -0.7226 N   0  0  0  0  0  0  0  0  0  0  0  0
   -5.2850    0.3563    1.4830 C   0  0  0  0  0  0  0  0  0  0  0  0
    1.8302   -1.5416   -1.9788 N   0  0  0  0  0  0  0  0  0  0  0  0
    2.7232   -2.5470   -1.8881 C   0  0  0  0  0  0  0  0  0  0  0  0
    2.7554    0.5385   -1.0851 C   0  0  0  0  0  0  0  0  0  0  0  0
   -5.8360    2.4265   -1.1613 O   0  0  0  0  0  0  0  0  0  0  0  0
    2.8432   -3.5513   -3.0053 C   0  0  0  0  0  0  0  0  0  0  0  0
    3.4302   -2.6436   -0.9074 O   0  0  0  0  0  0  0  0  0  0  0  0
   -8.3617    1.5120   -1.3856 C   0  0  0  0  0  0  0  0  0  0  0  0
    0.6160    1.1997    0.7173 H   0  0  0  0  0  0  0  0  0  0  0  0
   -2.2897    3.4166   -0.1604 H   0  0  0  0  0  0  0  0  0  0  0  0
   -0.4283    3.5043   -0.3249 H   0  0  0  0  0  0  0  0  0  0  0  0
   -3.7465    2.3615   -0.1484 H   0  0  0  0  0  0  0  0  0  0  0  0
    1.8830   -1.0624    0.0624 H   0  0  0  0  0  0  0  0  0  0  0  0
   -4.7591   -0.3573   -0.4804 H   0  0  0  0  0  0  0  0  0  0  0  0
   -7.4350   -0.0771   -0.3253 H   0  0  0  0  0  0  0  0  0  0  0  0
   -5.4448    1.3128    1.9808 H   0  0  0  0  0  0  0  0  0  0  0  0
   -6.1973   -0.2378    1.5361 H   0  0  0  0  0  0  0  0  0  0  0  0
   -4.4737   -0.1789    1.9763 H   0  0  0  0  0  0  0  0  0  0  0  0
    1.2648   -1.4644   -2.7632 H   0  0  0  0  0  0  0  0  0  0  0  0
    2.5859    1.0356   -2.0403 H   0  0  0  0  0  0  0  0  0  0  0  0
    2.6686    1.2649   -0.2771 H   0  0  0  0  0  0  0  0  0  0  0  0
    3.7539    0.1015   -1.0751 H   0  0  0  0  0  0  0  0  0  0  0  0
    3.5816   -3.2042   -3.7281 H   0  0  0  0  0  0  0  0  0  0  0  0
    3.1574   -4.5122   -2.5979 H   0  0  0  0  0  0  0  0  0  0  0  0
    1.8775   -3.6638   -3.4980 H   0  0  0  0  0  0  0  0  0  0  0  0
   -9.2741    0.9179   -1.3325 H   0  0  0  0  0  0  0  0  0  0  0  0
   -8.5216    2.4684   -0.8878 H   0  0  0  0  0  0  0  0  0  0  0  0
   -8.1010    1.6849   -2.4297 H   0  0  0  0  0  0  0  0  0  0  0  0
  1  2  1  0  0  0  0
  1  5  1  0  0  0  0
  1 21  1  0  0  0  0
  2  3  1  0  0  0  0
  2  4  2  0  0  0  0
  3  6  1  0  0  0  0
  3  7  2  0  0  0  0
  4 22  1  0  0  0  0
  4 23  1  0  0  0  0
  5  8  2  0  0  0  0
  5  9  1  0  0  0  0
  6 10  1  0  0  0  0
  6 24  1  0  0  0  0
  9 14  1  0  0  0  0
  9 16  1  0  0  0  0
  9 25  1  0  0  0  0
 10 11  1  0  0  0  0
 10 13  1  0  0  0  0
 10 26  1  0  0  0  0
 11 12  1  0  0  0  0
 11 17  2  0  0  0  0
 12 20  1  0  0  0  0
 12 27  1  0  0  0  0
 13 28  1  0  0  0  0
 13 29  1  0  0  0  0
 13 30  1  0  0  0  0
 14 15  1  0  0  0  0
 14 31  1  0  0  0  0
 15 18  1  0  0  0  0
 15 19  2  0  0  0  0
 16 32  1  0  0  0  0
 16 33  1  0  0  0  0
 16 34  1  0  0  0  0
 18 35  1  0  0  0  0
 18 36  1  0  0  0  0
 18 37  1  0  0  0  0
 20 38  1  0  0  0  0
 20 39  1  0  0  0  0
 20 40  1  0  0  0  0
M  END
$$$$
