DHA_Tripeptide.sdf
  PyMOL2.2          3D                             0

 40 39  0  0  0  0  0  0  0  0999 V2000
   -0.5814   -1.0000   -1.4264 N   0  0  0  0  0  0  0  0  0  0  0  0
   -1.7626   -0.3800   -1.8547 C   0  0  0  0  0  0  0  0  0  0  0  0
   -2.9755   -0.4450   -1.0171 C   0  0  0  0  0  0  0  0  0  0  0  0
   -1.7907    0.2697   -3.0208 C   0  0  0  0  0  0  0  0  0  0  0  0
    0.5950   -0.3497   -1.5251 C   0  0  0  0  0  0  0  0  0  0  0  0
   -3.7146    0.6637   -0.8142 N   0  0  0  0  0  0  0  0  0  0  0  0
   -3.3083   -1.4986   -0.5098 O   0  0  0  0  0  0  0  0  0  0  0  0
    0.6433    0.7392   -2.0572 O   0  0  0  0  0  0  0  0  0  0  0  0
    1.8504   -0.9756   -0.9745 C   0  0  0  0  0  0  0  0  0  0  0  0
   -4.9189    0.5991    0.0174 C   0  0  0  0  0  0  0  0  0  0  0  0
   -6.0407    1.3391   -0.6646 C   0  0  0  0  0  0  0  0  0  0  0  0
   -7.2713    0.7926   -0.7226 N   0  0  0  0  0  0  0  0  0  0  0  0
   -4.6354    1.2426    1.3762 C   0  0  0  0  0  0  0  0  0  0  0  0
    2.9363   -0.8286   -1.9467 N   0  0  0  0  0  0  0  0  0  0  0  0
    3.7396   -1.8750   -2.2231 C   0  0  0  0  0  0  0  0  0  0  0  0
    2.2373   -0.2785    0.3315 C   0  0  0  0  0  0  0  0  0  0  0  0
   -5.8360    2.4265   -1.1613 O   0  0  0  0  0  0  0  0  0  0  0  0
    4.8566   -1.7238   -3.2233 C   0  0  0  0  0  0  0  0  0  0  0  0
    3.5635   -2.9383   -1.6669 O   0  0  0  0  0  0  0  0  0  0  0  0
   -8.3617    1.5120   -1.3856 C   0  0  0  0  0  0  0  0  0  0  0  0
   -0.6098   -1.8986   -1.0626 H   0  0  0  0  0  0  0  0  0  0  0  0
   -2.6750    0.8164   -3.3131 H   0  0  0  0  0  0  0  0  0  0  0  0
   -0.9291    0.2483   -3.6717 H   0  0  0  0  0  0  0  0  0  0  0  0
   -3.4492    1.5043   -1.2190 H   0  0  0  0  0  0  0  0  0  0  0  0
    1.6748   -2.0342   -0.7830 H   0  0  0  0  0  0  0  0  0  0  0  0
   -5.2056   -0.4426    0.1615 H   0  0  0  0  0  0  0  0  0  0  0  0
   -7.4350   -0.0771   -0.3253 H   0  0  0  0  0  0  0  0  0  0  0  0
   -4.3487    2.2844    1.2321 H   0  0  0  0  0  0  0  0  0  0  0  0
   -5.5314    1.1947    1.9951 H   0  0  0  0  0  0  0  0  0  0  0  0
   -3.8241    0.7075    1.8695 H   0  0  0  0  0  0  0  0  0  0  0  0
    3.0773    0.0218   -2.3916 H   0  0  0  0  0  0  0  0  0  0  0  0
    2.4128    0.7801    0.1401 H   0  0  0  0  0  0  0  0  0  0  0  0
    1.4293   -0.3878    1.0549 H   0  0  0  0  0  0  0  0  0  0  0  0
    3.1453   -0.7312    0.7298 H   0  0  0  0  0  0  0  0  0  0  0  0
    5.7618   -1.3984   -2.7106 H   0  0  0  0  0  0  0  0  0  0  0  0
    5.0397   -2.6812   -3.7111 H   0  0  0  0  0  0  0  0  0  0  0  0
    4.5765   -0.9825   -3.9716 H   0  0  0  0  0  0  0  0  0  0  0  0
   -9.2741    0.9179   -1.3325 H   0  0  0  0  0  0  0  0  0  0  0  0
   -8.5216    2.4684   -0.8878 H   0  0  0  0  0  0  0  0  0  0  0  0
   -8.1010    1.6849   -2.4297 H   0  0  0  0  0  0  0  0  0  0  0  0
  1  2  1  0  0  0  0
  1  5  1  0  0  0  0
  1 21  1  0  0  0  0
  2  3  1  0  0  0  0
  2  4  2  0  0  0  0
  3  6  1  0  0  0  0
  3  7  2  0  0  0  0
  4 22  1  0  0  0  0
  4 23  1  0  0  0  0
  5  8  2  0  0  0  0
  5  9  1  0  0  0  0
  6 10  1  0  0  0  0
  6 24  1  0  0  0  0
  9 14  1  0  0  0  0
  9 16  1  0  0  0  0
  9 25  1  0  0  0  0
 10 11  1  0  0  0  0
 10 13  1  0  0  0  0
 10 26  1  0  0  0  0
 11 12  1  0  0  0  0
 11 17  2  0  0  0  0
 12 20  1  0  0  0  0
 12 27  1  0  0  0  0
 13 28  1  0  0  0  0
 13 29  1  0  0  0  0
 13 30  1  0  0  0  0
 14 15  1  0  0  0  0
 14 31  1  0  0  0  0
 15 18  1  0  0  0  0
 15 19  2  0  0  0  0
 16 32  1  0  0  0  0
 16 33  1  0  0  0  0
 16 34  1  0  0  0  0
 18 35  1  0  0  0  0
 18 36  1  0  0  0  0
 18 37  1  0  0  0  0
 20 38  1  0  0  0  0
 20 39  1  0  0  0  0
 20 40  1  0  0  0  0
M  END
$$$$
