2KT.sdf
CTcorina_a12222320503D 1   1.00000     0.00000 
CORINA 4.3.0 0026  30.10.2019
 27 26  0  0  0  0  0  0  0  0999 V2000
   -3.6187    1.2507    0.7306 N   0  0  0  0  0  0  0  0  0  0  0  0
   -4.6532    0.3934    1.3146 C   0  0  0  0  0  0  0  0  0  0  0  0
   -2.3538    0.7992    0.6180 C   0  0  0  0  0  0  0  0  0  0  0  0
   -2.0720   -0.3168    1.0002 O   0  0  0  0  0  0  0  0  0  0  0  0
   -1.2896    1.6810    0.0173 C   0  0  0  0  0  0  0  0  0  0  0  0
   -0.0111    0.9658    0.0074 N   0  0  0  0  0  0  0  0  0  0  0  0
    1.1468    1.6555   -0.0000 C   0  0  0  0  0  0  0  0  0  0  0  0
   -1.6801    2.0475   -1.4159 C   0  0  0  0  0  0  0  0  0  0  0  0
    2.4479    0.9277   -0.0163 C   0  0  0  0  0  0  0  0  0  0  0  0
    1.1304    2.8691    0.0067 O   0  0  0  0  0  0  0  0  0  0  0  0
    3.7426    1.6989   -0.0246 C   0  0  0  0  0  0  0  0  0  0  0  0
    2.4643   -0.2799   -0.0230 O   0  0  0  0  0  0  0  0  0  0  0  0
    4.9188    0.7206   -0.0410 C   0  0  0  0  0  0  0  0  0  0  0  0
   -3.8441    2.1432    0.4249 H   0  0  0  0  0  0  0  0  0  0  0  0
   -4.3750    0.1323    2.3356 H   0  0  0  0  0  0  0  0  0  0  0  0
   -5.6045    0.9255    1.3220 H   0  0  0  0  0  0  0  0  0  0  0  0
   -4.7499   -0.5154    0.7206 H   0  0  0  0  0  0  0  0  0  0  0  0
   -1.1929    2.5898    0.6112 H   0  0  0  0  0  0  0  0  0  0  0  0
    0.0021   -0.0041    0.0020 H   0  0  0  0  0  0  0  0  0  0  0  0
   -2.6314    2.5796   -1.4085 H   0  0  0  0  0  0  0  0  0  0  0  0
   -0.9104    2.6853   -1.8504 H   0  0  0  0  0  0  0  0  0  0  0  0
   -1.7768    1.1387   -2.0098 H   0  0  0  0  0  0  0  0  0  0  0  0
    3.7833    2.3311   -0.9116 H   0  0  0  0  0  0  0  0  0  0  0  0
    3.8003    2.3215    0.8683 H   0  0  0  0  0  0  0  0  0  0  0  0
    4.8611    0.0980   -0.9339 H   0  0  0  0  0  0  0  0  0  0  0  0
    5.8553    1.2784   -0.0470 H   0  0  0  0  0  0  0  0  0  0  0  0
    4.8781    0.0885    0.8460 H   0  0  0  0  0  0  0  0  0  0  0  0
  1  2  1  0  0  0  0
  1  3  1  0  0  0  0
  1 14  1  0  0  0  0
  2 15  1  0  0  0  0
  2 16  1  0  0  0  0
  2 17  1  0  0  0  0
  3  4  2  0  0  0  0
  3  5  1  0  0  0  0
  5  6  1  0  0  0  0
  5  8  1  0  0  0  0
  5 18  1  0  0  0  0
  6  7  1  0  0  0  0
  6 19  1  0  0  0  0
  7  9  1  0  0  0  0
  7 10  2  0  0  0  0
  8 20  1  0  0  0  0
  8 21  1  0  0  0  0
  8 22  1  0  0  0  0
  9 11  1  0  0  0  0
  9 12  2  0  0  0  0
 11 13  1  0  0  0  0
 11 23  1  0  0  0  0
 11 24  1  0  0  0  0
 13 25  1  0  0  0  0
 13 26  1  0  0  0  0
 13 27  1  0  0  0  0
M  END
$$$$
