DAB.sdf
CTcorina_a02272310453D 1   1.00000     0.00000 
CORINA 4.3.0 0026  30.10.2019
 16 15  0  0  1  0  0  0  0  0999 V2000
   -0.7955    1.5269   -1.1198 C   0  0  0  0  0  0  0  0  0  0  0  0
   -0.1848    1.0590   -2.4156 C   0  0  0  0  0  0  0  0  0  0  0  0
    0.5510    0.1007   -2.4255 O   0  0  0  0  0  0  0  0  0  0  0  0
   -0.4582    1.7070   -3.5589 O   0  0  0  0  0  0  0  0  0  0  0  0
   -2.2343    1.0162   -1.0204 C   0  0  0  0  0  0  0  0  0  0  0  0
   -0.0116    1.0048    0.0076 N   0  0  0  0  0  0  0  0  0  0  0  0
   -2.8948    1.5931    0.2334 C   0  0  0  0  0  0  0  0  0  0  0  0
   -0.7938    2.6165   -1.0898 H   0  0  0  0  0  0  0  0  0  0  0  0
   -0.0431    1.3699   -4.3647 H   0  0  0  0  0  0  0  0  0  0  0  0
   -2.7929    1.3298   -1.9023 H   0  0  0  0  0  0  0  0  0  0  0  0
   -2.2303   -0.0722   -0.9609 H   0  0  0  0  0  0  0  0  0  0  0  0
    0.0021   -0.0041    0.0020 H   0  0  0  0  0  0  0  0  0  0  0  0
    0.9253    1.3792    0.0006 H   0  0  0  0  0  0  0  0  0  0  0  0
   -2.3362    1.2795    1.1153 H   0  0  0  0  0  0  0  0  0  0  0  0
   -2.8988    2.6814    0.1739 H   0  0  0  0  0  0  0  0  0  0  0  0
   -3.9198    1.2292    0.3042 H   0  0  0  0  0  0  0  0  0  0  0  0
  1  2  1  0  0  0  0
  1  5  1  0  0  0  0
  1  6  1  0  0  0  0
  1  8  1  0  0  0  0
  2  3  2  0  0  0  0
  2  4  1  0  0  0  0
  4  9  1  0  0  0  0
  5  7  1  0  0  0  0
  5 10  1  0  0  0  0
  5 11  1  0  0  0  0
  6 12  1  0  0  0  0
  6 13  1  0  0  0  0
  7 14  1  0  0  0  0
  7 15  1  0  0  0  0
  7 16  1  0  0  0  0
M  END
$$$$
