


 25 24  0  0  0  0  0  0  0  0999 V2000
   -1.5688    1.9004    1.2035 H   0  0  0  1  0  0  0  0  0  0  0  0
   -0.0167    1.1778   -0.0097 C   0  0  0  1  0  0  0  0  0  0  0  0
   -2.3943    1.5833   -0.6549 N   0  0  0  1  0  0  0  0  0  0  0  0
   -1.2714    2.0199    0.1827 C   0  0  0  1  0  0  0  0  0  0  0  0
   -0.0799   -0.0458   -0.1214 O   0  0  0  1  0  0  0  0  0  0  0  0
    1.1404    1.8560   -0.0475 N   0  0  0  1  0  0  0  0  0  0  0  0
   -3.2993    1.8814   -0.4255 H   0  0  0  1  0  0  0  0  0  0  0  0
   -2.2243    0.7857   -1.7297 C   0  0  0  1  0  0  0  0  0  0  0  0
    2.4336    1.1909    0.0092 C   0  0  0  1  0  0  0  0  0  0  0  0
   -3.4619    0.2833   -2.4474 C   0  0  0  1  0  0  0  0  0  0  0  0
   -1.1013    0.4742   -2.1173 O   0  0  0  1  0  0  0  0  0  0  0  0
    1.1138    2.8333   -0.1157 H   0  0  0  1  0  0  0  0  0  0  0  0
    2.9292    1.4509    0.9211 H   0  0  0  1  0  0  0  0  0  0  0  0
    3.0310    1.5017   -0.8223 H   0  0  0  1  0  0  0  0  0  0  0  0
    2.2913    0.1311   -0.0296 H   0  0  0  1  0  0  0  0  0  0  0  0
   -4.0885    1.1125   -2.7019 H   0  0  0  1  0  0  0  0  0  0  0  0
   -3.9983   -0.3856   -1.8073 H   0  0  0  1  0  0  0  0  0  0  0  0
   -3.1721   -0.2315   -3.3396 H   0  0  0  1  0  0  0  0  0  0  0  0
   -1.0516    3.5054   -0.0302 C   0  0  0  1  0  0  0  0  0  0  0  0
   -0.6219    3.8542   -1.4458 C   0  0  0  1  0  0  0  0  0  0  0  0
   -0.2914    3.8362    0.6463 H   0  0  0  1  0  0  0  0  0  0  0  0
   -1.9666    4.0176    0.1826 H   0  0  0  1  0  0  0  0  0  0  0  0
    0.3569    3.4626   -1.6287 H   0  0  0  1  0  0  0  0  0  0  0  0
   -0.6078    4.9177   -1.5622 H   0  0  0  1  0  0  0  0  0  0  0  0
   -1.3124    3.4277   -2.1432 H   0  0  0  1  0  0  0  0  0  0  0  0
  1  4  1  0  0  0  0
  2  4  1  0  0  0  0
  2  5  2  0  0  0  0
  2  6  1  0  0  0  0
  3  4  1  0  0  0  0
  3  7  1  0  0  0  0
  3  8  1  0  0  0  0
  4 19  1  0  0  0  0
  6  9  1  0  0  0  0
  6 12  1  0  0  0  0
  8 10  1  0  0  0  0
  8 11  2  0  0  0  0
  9 13  1  0  0  0  0
  9 14  1  0  0  0  0
  9 15  1  0  0  0  0
 10 16  1  0  0  0  0
 10 17  1  0  0  0  0
 10 18  1  0  0  0  0
 19 20  1  0  0  0  0
 19 21  1  0  0  0  0
 19 22  1  0  0  0  0
 20 23  1  0  0  0  0
 20 24  1  0  0  0  0
 20 25  1  0  0  0  0
M  END
> <BCLConfClusterSize>
1

> <ConfClashScore>
0.00394337 

> <ConfOneFourInteractionScore>
-0.879159 

> <ConfScore>
0.441588 

> <ConfScorePBest>
1 

> <RosettaParamsInstructions>
M  ROOT 3
M  POLY_N_BB 3
M  POLY_CA_BB 4
M  POLY_C_BB 2
M  POLY_O_BB 5
M  POLY_IGNORE 9 10 11 12 13 14 15 16 17 18 
M  POLY_UPPER 6
M  POLY_LOWER 8
M  POLY_CHG 0
M  POLY_PROPERTIES ALPHA_AA D_AA PROTEIN ALIPHATIC POLYMER 
M  END

$$$$
