DBU_dipeptide.sdf
CTcorina_a03062316433D 1   1.00000     0.00000 
CORINA 4.3.0 0026  30.10.2019
 23 22  0  0  0  0  0  0  0  0999 V2000
   -1.1794    1.7356    0.0238 C   0  0  0  0  0  0  0  0  0  0  0  0
   -2.4237    0.9966    0.3110 C   0  0  0  0  0  0  0  0  0  0  0  0
   -3.4667    1.6009    0.4703 O   0  0  0  0  0  0  0  0  0  0  0  0
   -2.4042   -0.3483    0.3968 N   0  0  0  0  0  0  0  0  0  0  0  0
   -0.0341    1.0720   -0.1510 C   0  0  0  0  0  0  0  0  0  0  0  0
   -1.1996    3.1337   -0.0654 N   0  0  0  0  0  0  0  0  0  0  0  0
   -2.0033    3.7402   -0.9613 C   0  0  0  0  0  0  0  0  0  0  0  0
   -3.6397   -1.0820    0.6820 C   0  0  0  0  0  0  0  0  0  0  0  0
   -2.6411    3.0763   -1.7509 O   0  0  0  0  0  0  0  0  0  0  0  0
   -2.1094    5.2433   -0.9821 C   0  0  0  0  0  0  0  0  0  0  0  0
    1.2557    1.8300   -0.3327 C   0  0  0  0  0  0  0  0  0  0  0  0
   -1.5722   -0.8304    0.2698 H   0  0  0  0  0  0  0  0  0  0  0  0
   -0.0327   -0.0079   -0.1668 H   0  0  0  0  0  0  0  0  0  0  0  0
   -0.6352    3.6651    0.5177 H   0  0  0  0  0  0  0  0  0  0  0  0
   -4.3718   -0.8786   -0.0996 H   0  0  0  0  0  0  0  0  0  0  0  0
   -3.4287   -2.1509    0.7128 H   0  0  0  0  0  0  0  0  0  0  0  0
   -4.0381   -0.7624    1.6450 H   0  0  0  0  0  0  0  0  0  0  0  0
   -1.3555    5.6515   -1.6552 H   0  0  0  0  0  0  0  0  0  0  0  0
   -3.1013    5.5328   -1.3290 H   0  0  0  0  0  0  0  0  0  0  0  0
   -1.9481    5.6329    0.0231 H   0  0  0  0  0  0  0  0  0  0  0  0
    1.7379    1.5104   -1.2566 H   0  0  0  0  0  0  0  0  0  0  0  0
    1.0453    2.8983   -0.3833 H   0  0  0  0  0  0  0  0  0  0  0  0
    1.9168    1.6294    0.5104 H   0  0  0  0  0  0  0  0  0  0  0  0
  1  2  1  0  0  0  0
  1  5  2  0  0  0  0
  1  6  1  0  0  0  0
  2  3  2  0  0  0  0
  2  4  1  0  0  0  0
  4  8  1  0  0  0  0
  4 12  1  0  0  0  0
  5 11  1  0  0  0  0
  5 13  1  0  0  0  0
  6  7  1  0  0  0  0
  6 14  1  0  0  0  0
  7  9  2  0  0  0  0
  7 10  1  0  0  0  0
  8 15  1  0  0  0  0
  8 16  1  0  0  0  0
  8 17  1  0  0  0  0
 10 18  1  0  0  0  0
 10 19  1  0  0  0  0
 10 20  1  0  0  0  0
 11 21  1  0  0  0  0
 11 22  1  0  0  0  0
 11 23  1  0  0  0  0
M  END
$$$$
