DHA_dipeptide.sdf
  ChemDraw03062316382D

 10  9  0  0  0  0  0  0  0  0999 V2000
   -0.3572    0.4126    0.0000 C   0  0  0  0  0  0  0  0  0  0  0  0
    0.3572    0.8251    0.0000 C   0  0  0  0  0  0  0  0  0  0  0  0
    0.3572    1.6499    0.0000 O   0  0  0  0  0  0  0  0  0  0  0  0
    1.0717    0.4126    0.0000 N   0  0  0  0  0  0  0  0  0  0  0  0
   -1.0717    0.8252    0.0000 C   0  0  0  0  0  0  0  0  0  0  0  0
   -0.3572   -0.4124    0.0000 N   0  0  0  0  0  0  0  0  0  0  0  0
   -1.0717   -0.8249    0.0000 C   0  0  0  0  0  0  0  0  0  0  0  0
    1.7862    0.8251    0.0000 C   0  0  0  0  0  0  0  0  0  0  0  0
   -1.7862   -0.4124    0.0000 O   0  0  0  0  0  0  0  0  0  0  0  0
   -1.0717   -1.6499    0.0000 C   0  0  0  0  0  0  0  0  0  0  0  0
  1  2  1  0      
  2  3  2  0      
  2  4  1  0      
  1  5  2  0      
  1  6  1  0      
  6  7  1  0      
  4  8  1  0      
  7  9  2  0      
  7 10  1  0      
M  END
$$$$
