DHA_dipeptide.sdf
CTcorina_a03062316433D 1   1.00000     0.00000 
CORINA 4.3.0 0026  30.10.2019
 20 19  0  0  0  0  0  0  0  0999 V2000
   -0.9036    1.7128    3.6475 C   0  0  0  0  0  0  0  0  0  0  0  0
   -0.1967    1.2110    2.4536 C   0  0  0  0  0  0  0  0  0  0  0  0
    0.7880    0.5091    2.5803 O   0  0  0  0  0  0  0  0  0  0  0  0
   -0.6425    1.5307    1.2225 N   0  0  0  0  0  0  0  0  0  0  0  0
   -1.9849    2.4835    3.5084 C   0  0  0  0  0  0  0  0  0  0  0  0
   -0.4402    1.3804    4.9273 N   0  0  0  0  0  0  0  0  0  0  0  0
   -0.3569    0.0876    5.2992 C   0  0  0  0  0  0  0  0  0  0  0  0
    0.0594    1.0325    0.0371 C   0  0  0  0  0  0  0  0  0  0  0  0
   -0.6021   -0.7905    4.4992 O   0  0  0  0  0  0  0  0  0  0  0  0
    0.0407   -0.2668    6.7089 C   0  0  0  0  0  0  0  0  0  0  0  0
   -1.4281    2.0907    1.1215 H   0  0  0  0  0  0  0  0  0  0  0  0
   -2.4540    2.9179    4.3788 H   0  0  0  0  0  0  0  0  0  0  0  0
   -2.3904    2.6725    2.5254 H   0  0  0  0  0  0  0  0  0  0  0  0
   -0.1792    2.0807    5.5456 H   0  0  0  0  0  0  0  0  0  0  0  0
    0.0554   -0.0575    0.0437 H   0  0  0  0  0  0  0  0  0  0  0  0
    1.0884    1.3921    0.0461 H   0  0  0  0  0  0  0  0  0  0  0  0
   -0.4433    1.3922   -0.8607 H   0  0  0  0  0  0  0  0  0  0  0  0
    0.2198    0.6465    7.2764 H   0  0  0  0  0  0  0  0  0  0  0  0
   -0.7605   -0.8361    7.1802 H   0  0  0  0  0  0  0  0  0  0  0  0
    0.9503   -0.8670    6.6899 H   0  0  0  0  0  0  0  0  0  0  0  0
  1  2  1  0  0  0  0
  1  5  2  0  0  0  0
  1  6  1  0  0  0  0
  2  3  2  0  0  0  0
  2  4  1  0  0  0  0
  4  8  1  0  0  0  0
  4 11  1  0  0  0  0
  5 12  1  0  0  0  0
  5 13  1  0  0  0  0
  6  7  1  0  0  0  0
  6 14  1  0  0  0  0
  7  9  2  0  0  0  0
  7 10  1  0  0  0  0
  8 15  1  0  0  0  0
  8 16  1  0  0  0  0
  8 17  1  0  0  0  0
 10 18  1  0  0  0  0
 10 19  1  0  0  0  0
 10 20  1  0  0  0  0
M  END
$$$$
