AAB.sdf
CTcorina_a02272310453D 1   1.00000     0.00000 
CORINA 4.3.0 0026  30.10.2019
 16 15  0  0  1  0  0  0  0  0999 V2000
   -0.7955    1.5269   -1.1198 C   0  0  0  0  0  0  0  0  0  0  0  0
   -2.2127    1.0239   -1.0219 C   0  0  0  0  0  0  0  0  0  0  0  0
   -2.4627    0.0484   -0.3542 O   0  0  0  0  0  0  0  0  0  0  0  0
   -3.1972    1.6595   -1.6765 O   0  0  0  0  0  0  0  0  0  0  0  0
   -0.1755    1.0519   -2.4354 C   0  0  0  0  0  0  0  0  0  0  0  0
   -0.0116    1.0048    0.0076 N   0  0  0  0  0  0  0  0  0  0  0  0
    1.2177    1.6644   -2.5931 C   0  0  0  0  0  0  0  0  0  0  0  0
   -0.7938    2.6165   -1.0898 H   0  0  0  0  0  0  0  0  0  0  0  0
   -4.0899    1.2997   -1.5834 H   0  0  0  0  0  0  0  0  0  0  0  0
   -0.0957   -0.0351   -2.4279 H   0  0  0  0  0  0  0  0  0  0  0  0
   -0.8060    1.3642   -3.2679 H   0  0  0  0  0  0  0  0  0  0  0  0
    0.0021   -0.0041    0.0020 H   0  0  0  0  0  0  0  0  0  0  0  0
    0.9253    1.3792    0.0006 H   0  0  0  0  0  0  0  0  0  0  0  0
    1.1380    2.7514   -2.6006 H   0  0  0  0  0  0  0  0  0  0  0  0
    1.8482    1.3520   -1.7606 H   0  0  0  0  0  0  0  0  0  0  0  0
    1.6594    1.3260   -3.5303 H   0  0  0  0  0  0  0  0  0  0  0  0
  1  2  1  0  0  0  0
  1  5  1  0  0  0  0
  1  6  1  0  0  0  0
  1  8  1  0  0  0  0
  2  3  2  0  0  0  0
  2  4  1  0  0  0  0
  4  9  1  0  0  0  0
  5  7  1  0  0  0  0
  5 10  1  0  0  0  0
  5 11  1  0  0  0  0
  6 12  1  0  0  0  0
  6 13  1  0  0  0  0
  7 14  1  0  0  0  0
  7 15  1  0  0  0  0
  7 16  1  0  0  0  0
M  END
$$$$
