Title Card Required
  PyMOL2.2          3D                             0

 23 22  0  0  0  0  0  0  0  0999 V2000
    0.1544   -0.8212   -0.1391 C   0  0  0  0  0  0  0  0  0  0  0  0
   -1.2958   -0.5174    0.0611 C   0  0  0  0  0  0  0  0  0  0  0  0
   -2.0320   -1.2833    0.7017 O   0  0  0  0  0  0  0  0  0  0  0  0
   -1.7586    0.5948   -0.5104 N   0  0  0  0  0  0  0  0  0  0  0  0
    0.5943   -2.0712    0.0026 C   0  0  0  0  0  0  0  0  0  0  0  0
    1.0005    0.2405   -0.5615 N   0  0  0  0  0  0  0  0  0  0  0  0
    1.2928    1.2831    0.2510 C   0  0  0  0  0  0  0  0  0  0  0  0
   -3.1498    0.9907   -0.3664 C   0  0  0  0  0  0  0  0  0  0  0  0
    0.7751    1.3942    1.3645 O   0  0  0  0  0  0  0  0  0  0  0  0
    2.2535    2.3000   -0.2843 C   0  0  0  0  0  0  0  0  0  0  0  0
    1.9968   -2.5301   -0.1888 C   0  0  0  0  0  0  0  0  0  0  0  0
   -1.1195    1.1911   -1.0101 H   0  0  0  0  0  0  0  0  0  0  0  0
   -0.1436   -2.8196    0.2629 H   0  0  0  0  0  0  0  0  0  0  0  0
    1.5511    0.1169   -1.3986 H   0  0  0  0  0  0  0  0  0  0  0  0
   -3.4028    1.1207    0.6847 H   0  0  0  0  0  0  0  0  0  0  0  0
   -3.8088    0.2389   -0.7974 H   0  0  0  0  0  0  0  0  0  0  0  0
   -3.2912    1.9316   -0.8884 H   0  0  0  0  0  0  0  0  0  0  0  0
    2.6790    2.0104   -1.2417 H   0  0  0  0  0  0  0  0  0  0  0  0
    3.0467    2.4419    0.4480 H   0  0  0  0  0  0  0  0  0  0  0  0
    1.7205    3.2446   -0.3937 H   0  0  0  0  0  0  0  0  0  0  0  0
    2.3117   -3.1097    0.6805 H   0  0  0  0  0  0  0  0  0  0  0  0
    2.6898   -1.7056   -0.3377 H   0  0  0  0  0  0  0  0  0  0  0  0
    2.0526   -3.1989   -1.0507 H   0  0  0  0  0  0  0  0  0  0  0  0
  1  2  1  0  0  0  0
  1  5  2  0  0  0  0
  1  6  1  0  0  0  0
  2  3  2  0  0  0  0
  2  4  4  0  0  0  0
  4  8  1  0  0  0  0
  4 12  1  0  0  0  0
  5 11  1  0  0  0  0
  5 13  1  0  0  0  0
  6  7  4  0  0  0  0
  6 14  1  0  0  0  0
  7  9  2  0  0  0  0
  7 10  1  0  0  0  0
  8 15  1  0  0  0  0
  8 16  1  0  0  0  0
  8 17  1  0  0  0  0
 10 18  1  0  0  0  0
 10 19  1  0  0  0  0
 10 20  1  0  0  0  0
 11 21  1  0  0  0  0
 11 22  1  0  0  0  0
 11 23  1  0  0  0  0
M  END
