DHA_new
  PyMOL2.2          3D                             0

 20 19  0  0  0  0  0  0  0  0999 V2000
    2.3788   -1.8201   -0.3367 C   0  0  0  0  0  0  0  0  0  0  0  0
    1.2792   -0.8907   -0.5395 N   0  0  0  0  0  0  0  0  0  0  0  0
    1.2618    0.2949    0.0667 C   0  0  0  0  0  0  0  0  0  0  0  0
    2.1892    0.6914    0.7842 O   0  0  0  0  0  0  0  0  0  0  0  0
    0.0767    1.1718   -0.2137 C   0  0  0  0  0  0  0  0  0  0  0  0
    0.2158    2.4913   -0.2120 C   0  0  0  0  0  0  0  0  0  0  0  0
   -1.1381    0.5427   -0.5820 N   0  0  0  0  0  0  0  0  0  0  0  0
   -1.7718   -0.3248    0.2461 C   0  0  0  0  0  0  0  0  0  0  0  0
   -3.0704   -0.8815   -0.2488 C   0  0  0  0  0  0  0  0  0  0  0  0
   -1.2819   -0.6503    1.3279 O   0  0  0  0  0  0  0  0  0  0  0  0
    2.1710   -2.7218   -0.9035 H   0  0  0  0  0  0  0  0  0  0  0  0
    2.4751   -2.0713    0.7187 H   0  0  0  0  0  0  0  0  0  0  0  0
    3.3145   -1.3852   -0.6834 H   0  0  0  0  0  0  0  0  0  0  0  0
    0.4864   -1.1686   -1.0956 H   0  0  0  0  0  0  0  0  0  0  0  0
    1.1782    2.9346   -0.0024 H   0  0  0  0  0  0  0  0  0  0  0  0
   -0.6209    3.1367   -0.4427 H   0  0  0  0  0  0  0  0  0  0  0  0
   -1.6472    0.9121   -1.3715 H   0  0  0  0  0  0  0  0  0  0  0  0
   -2.8948   -1.9097   -0.5687 H   0  0  0  0  0  0  0  0  0  0  0  0
   -3.7804   -0.8964    0.5751 H   0  0  0  0  0  0  0  0  0  0  0  0
   -3.4724   -0.3117   -1.0829 H   0  0  0  0  0  0  0  0  0  0  0  0
  1  2  1  0  0  0  0
  1 11  1  0  0  0  0
  1 12  1  0  0  0  0
  1 13  1  0  0  0  0
  2  3  1  0  0  0  0
  2 14  1  0  0  0  0
  3  4  2  0  0  0  0
  3  5  1  0  0  0  0
  5  6  2  3  0  0  0
  5  7  1  0  0  0  0
  6 15  1  0  0  0  0
  6 16  1  0  0  0  0
  7  8  1  0  0  0  0
  7 17  1  0  0  0  0
  8  9  1  0  0  0  0
  8 10  2  0  0  0  0
  9 18  1  0  0  0  0
  9 19  1  0  0  0  0
  9 20  1  0  0  0  0
M  END
$$$$
