DHA_new
     RDKit          3D

 20 19  0  0  0  0  0  0  0  0999 V2000
    2.6492   -1.0456    2.6706 C   0  0  0  0  0  0  0  0  0  0  0  0
    1.6899   -0.2518    1.8806 N   0  0  0  0  0  0  0  0  0  0  0  0
    0.5388   -0.8450    1.3459 C   0  0  0  0  0  0  0  0  0  0  0  0
    0.3255   -2.0660    1.5440 O   0  0  0  0  0  0  0  0  0  0  0  0
   -0.4475   -0.0848    0.5486 C   0  0  0  0  0  0  0  0  0  0  0  0
   -0.2639    1.1914    0.3180 C   0  0  0  0  0  0  0  0  0  0  0  0
   -1.5885   -0.7457    0.0381 N   0  0  0  0  0  0  0  0  0  0  0  0
   -2.6164   -0.2082   -0.7246 C   0  0  0  0  0  0  0  0  0  0  0  0
   -3.7338   -1.1566   -1.1440 C   0  0  0  0  0  0  0  0  0  0  0  0
   -2.7299    0.9860   -1.1122 O   0  0  0  0  0  0  0  0  0  0  0  0
    3.5718   -1.1879    2.0899 H   0  0  0  0  0  0  0  0  0  0  0  0
    2.8818   -0.4988    3.6096 H   0  0  0  0  0  0  0  0  0  0  0  0
    2.1976   -2.0183    2.9026 H   0  0  0  0  0  0  0  0  0  0  0  0
    1.9196    0.7349    1.7551 H   0  0  0  0  0  0  0  0  0  0  0  0
   -0.9497    1.7791   -0.2522 H   0  0  0  0  0  0  0  0  0  0  0  0
    0.6226    1.6959    0.7170 H   0  0  0  0  0  0  0  0  0  0  0  0
   -1.6813   -1.7962    0.2631 H   0  0  0  0  0  0  0  0  0  0  0  0
   -3.5198   -1.5389   -2.1557 H   0  0  0  0  0  0  0  0  0  0  0  0
   -3.7965   -1.9969   -0.4216 H   0  0  0  0  0  0  0  0  0  0  0  0
   -4.6759   -0.5989   -1.1321 H   0  0  0  0  0  0  0  0  0  0  0  0
  1  2  1  0
  1 11  1  0
  1 12  1  0
  1 13  1  0
  2  3  1  0
  2 14  1  0
  3  4  2  0
  3  5  1  0
  5  6  2  3
  5  7  1  0
  6 15  1  0
  6 16  1  0
  7  8  1  0
  7 17  1  0
  8  9  1  0
  8 10  2  0
  9 18  1  0
  9 19  1  0
  9 20  1  0
M  END

> <RosettaParamsInstructions>
M  ROOT 7
M  POLY_N_BB 7
M  POLY_CA_BB 5
M  POLY_C_BB 3
M  POLY_O_BB 4
M  POLY_IGNORE 1 10 9 14 11 12 13 18 19 20
M  POLY_UPPER 2
M  POLY_LOWER 8
M  POLY_CHG 0
M  POLY_PROPERTIES PROTEIN POLYMER ALPHA_AA ALIPHATIC
M  END

$$$$
DHA_new
     RDKit          3D

 20 19  0  0  0  0  0  0  0  0999 V2000
    2.6673   -1.0602    2.5645 C   0  0  0  0  0  0  0  0  0  0  0  0
    1.6832   -0.2382    1.8546 N   0  0  0  0  0  0  0  0  0  0  0  0
    0.5739   -0.8532    1.3099 C   0  0  0  0  0  0  0  0  0  0  0  0
    0.4284   -2.1058    1.4326 O   0  0  0  0  0  0  0  0  0  0  0  0
   -0.4665   -0.0914    0.5772 C   0  0  0  0  0  0  0  0  0  0  0  0
   -0.3519    1.2008    0.4298 C   0  0  0  0  0  0  0  0  0  0  0  0
   -1.5755   -0.7993    0.0481 N   0  0  0  0  0  0  0  0  0  0  0  0
   -2.6200   -0.2150   -0.6575 C   0  0  0  0  0  0  0  0  0  0  0  0
   -3.7252   -1.1462   -1.1479 C   0  0  0  0  0  0  0  0  0  0  0  0
   -2.8065    0.9728   -0.9630 O   0  0  0  0  0  0  0  0  0  0  0  0
    2.1839   -1.9883    2.9105 H   0  0  0  0  0  0  0  0  0  0  0  0
    3.5539   -1.2720    1.9160 H   0  0  0  0  0  0  0  0  0  0  0  0
    2.9583   -0.4797    3.4630 H   0  0  0  0  0  0  0  0  0  0  0  0
    1.8687    0.7621    1.7969 H   0  0  0  0  0  0  0  0  0  0  0  0
    0.5223    1.6975    0.8571 H   0  0  0  0  0  0  0  0  0  0  0  0
   -1.0598    1.8296   -0.0870 H   0  0  0  0  0  0  0  0  0  0  0  0
   -1.6164   -1.8477    0.1980 H   0  0  0  0  0  0  0  0  0  0  0  0
   -3.7502   -1.9968   -0.4494 H   0  0  0  0  0  0  0  0  0  0  0  0
   -3.3959   -1.4279   -2.1744 H   0  0  0  0  0  0  0  0  0  0  0  0
   -4.6788   -0.5931   -1.1382 H   0  0  0  0  0  0  0  0  0  0  0  0
  1  2  1  0
  1 11  1  0
  1 12  1  0
  1 13  1  0
  2  3  1  0
  2 14  1  0
  3  4  2  0
  3  5  1  0
  5  6  2  3
  5  7  1  0
  6 15  1  0
  6 16  1  0
  7  8  1  0
  7 17  1  0
  8  9  1  0
  8 10  2  0
  9 18  1  0
  9 19  1  0
  9 20  1  0
M  END

> <RosettaParamsInstructions>
M  ROOT 7
M  POLY_N_BB 7
M  POLY_CA_BB 5
M  POLY_C_BB 3
M  POLY_O_BB 4
M  POLY_IGNORE 1 10 9 14 11 12 13 18 19 20
M  POLY_UPPER 2
M  POLY_LOWER 8
M  POLY_CHG 0
M  POLY_PROPERTIES PROTEIN POLYMER ALPHA_AA ALIPHATIC
M  END

$$$$
DHA_new
     RDKit          3D

 20 19  0  0  0  0  0  0  0  0999 V2000
    2.7155   -1.0411    2.5778 C   0  0  0  0  0  0  0  0  0  0  0  0
    1.6630   -0.2619    1.9042 N   0  0  0  0  0  0  0  0  0  0  0  0
    0.5742   -0.8574    1.2850 C   0  0  0  0  0  0  0  0  0  0  0  0
    0.5097   -2.1199    1.3163 O   0  0  0  0  0  0  0  0  0  0  0  0
   -0.4889   -0.0879    0.6056 C   0  0  0  0  0  0  0  0  0  0  0  0
   -0.4228    1.2149    0.5731 C   0  0  0  0  0  0  0  0  0  0  0  0
   -1.5529   -0.7748    0.0063 N   0  0  0  0  0  0  0  0  0  0  0  0
   -2.6279   -0.2220   -0.6683 C   0  0  0  0  0  0  0  0  0  0  0  0
   -3.6763   -1.1619   -1.2443 C   0  0  0  0  0  0  0  0  0  0  0  0
   -2.8928    0.9812   -0.8935 O   0  0  0  0  0  0  0  0  0  0  0  0
    2.8713   -0.5537    3.5611 H   0  0  0  0  0  0  0  0  0  0  0  0
    3.6428   -1.0335    1.9685 H   0  0  0  0  0  0  0  0  0  0  0  0
    2.3345   -2.0862    2.7372 H   0  0  0  0  0  0  0  0  0  0  0  0
    1.8030    0.7539    1.9317 H   0  0  0  0  0  0  0  0  0  0  0  0
    0.4229    1.7177    1.0518 H   0  0  0  0  0  0  0  0  0  0  0  0
   -1.1868    1.7940    0.0835 H   0  0  0  0  0  0  0  0  0  0  0  0
   -1.5245   -1.8390    0.0822 H   0  0  0  0  0  0  0  0  0  0  0  0
   -4.6701   -0.7502   -1.0353 H   0  0  0  0  0  0  0  0  0  0  0  0
   -3.5768   -2.1604   -0.7760 H   0  0  0  0  0  0  0  0  0  0  0  0
   -3.5238   -1.1641   -2.3263 H   0  0  0  0  0  0  0  0  0  0  0  0
  1  2  1  0
  1 11  1  0
  1 12  1  0
  1 13  1  0
  2  3  1  0
  2 14  1  0
  3  4  2  0
  3  5  1  0
  5  6  2  3
  5  7  1  0
  6 15  1  0
  6 16  1  0
  7  8  1  0
  7 17  1  0
  8  9  1  0
  8 10  2  0
  9 18  1  0
  9 19  1  0
  9 20  1  0
M  END

> <RosettaParamsInstructions>
M  ROOT 7
M  POLY_N_BB 7
M  POLY_CA_BB 5
M  POLY_C_BB 3
M  POLY_O_BB 4
M  POLY_IGNORE 1 10 9 14 11 12 13 18 19 20
M  POLY_UPPER 2
M  POLY_LOWER 8
M  POLY_CHG 0
M  POLY_PROPERTIES PROTEIN POLYMER ALPHA_AA ALIPHATIC
M  END

$$$$
DHA_new
     RDKit          3D

 20 19  0  0  0  0  0  0  0  0999 V2000
    2.6842   -1.0522    2.5862 C   0  0  0  0  0  0  0  0  0  0  0  0
    1.6829   -0.2320    1.8652 N   0  0  0  0  0  0  0  0  0  0  0  0
    0.5643   -0.8600    1.3139 C   0  0  0  0  0  0  0  0  0  0  0  0
    0.4463   -2.1053    1.4498 O   0  0  0  0  0  0  0  0  0  0  0  0
   -0.4618   -0.0873    0.5863 C   0  0  0  0  0  0  0  0  0  0  0  0
   -0.3463    1.2135    0.4398 C   0  0  0  0  0  0  0  0  0  0  0  0
   -1.5761   -0.7830    0.0486 N   0  0  0  0  0  0  0  0  0  0  0  0
   -2.6446   -0.2424   -0.6658 C   0  0  0  0  0  0  0  0  0  0  0  0
   -3.7392   -1.1588   -1.1559 C   0  0  0  0  0  0  0  0  0  0  0  0
   -2.8261    0.9588   -0.9696 O   0  0  0  0  0  0  0  0  0  0  0  0
    3.4712   -1.3710    1.8725 H   0  0  0  0  0  0  0  0  0  0  0  0
    3.1653   -0.4554    3.3702 H   0  0  0  0  0  0  0  0  0  0  0  0
    2.1415   -1.9441    3.0083 H   0  0  0  0  0  0  0  0  0  0  0  0
    1.9031    0.7800    1.8274 H   0  0  0  0  0  0  0  0  0  0  0  0
   -1.0483    1.8567   -0.0768 H   0  0  0  0  0  0  0  0  0  0  0  0
    0.5371    1.7235    0.8729 H   0  0  0  0  0  0  0  0  0  0  0  0
   -1.6165   -1.8458    0.1998 H   0  0  0  0  0  0  0  0  0  0  0  0
   -3.5226   -1.3575   -2.2275 H   0  0  0  0  0  0  0  0  0  0  0  0
   -4.7056   -0.6416   -1.0777 H   0  0  0  0  0  0  0  0  0  0  0  0
   -3.7152   -2.0485   -0.5265 H   0  0  0  0  0  0  0  0  0  0  0  0
  1  2  1  0
  1 11  1  0
  1 12  1  0
  1 13  1  0
  2  3  1  0
  2 14  1  0
  3  4  2  0
  3  5  1  0
  5  6  2  3
  5  7  1  0
  6 15  1  0
  6 16  1  0
  7  8  1  0
  7 17  1  0
  8  9  1  0
  8 10  2  0
  9 18  1  0
  9 19  1  0
  9 20  1  0
M  END

> <RosettaParamsInstructions>
M  ROOT 7
M  POLY_N_BB 7
M  POLY_CA_BB 5
M  POLY_C_BB 3
M  POLY_O_BB 4
M  POLY_IGNORE 1 10 9 14 11 12 13 18 19 20
M  POLY_UPPER 2
M  POLY_LOWER 8
M  POLY_CHG 0
M  POLY_PROPERTIES PROTEIN POLYMER ALPHA_AA ALIPHATIC
M  END

$$$$
DHA_new
     RDKit          3D

 20 19  0  0  0  0  0  0  0  0999 V2000
    2.6174   -1.0582    2.6373 C   0  0  0  0  0  0  0  0  0  0  0  0
    1.6875   -0.2177    1.8649 N   0  0  0  0  0  0  0  0  0  0  0  0
    0.5453   -0.8223    1.3343 C   0  0  0  0  0  0  0  0  0  0  0  0
    0.3544   -2.0477    1.5327 O   0  0  0  0  0  0  0  0  0  0  0  0
   -0.4246   -0.0593    0.5577 C   0  0  0  0  0  0  0  0  0  0  0  0
   -0.2311    1.2379    0.3424 C   0  0  0  0  0  0  0  0  0  0  0  0
   -1.5648   -0.7400    0.0476 N   0  0  0  0  0  0  0  0  0  0  0  0
   -2.6165   -0.2398   -0.7110 C   0  0  0  0  0  0  0  0  0  0  0  0
   -3.7366   -1.1629   -1.1471 C   0  0  0  0  0  0  0  0  0  0  0  0
   -2.7746    0.9436   -1.1080 O   0  0  0  0  0  0  0  0  0  0  0  0
    2.0174   -1.8532    3.1269 H   0  0  0  0  0  0  0  0  0  0  0  0
    3.0905   -0.4606    3.4512 H   0  0  0  0  0  0  0  0  0  0  0  0
    3.3452   -1.5490    1.9773 H   0  0  0  0  0  0  0  0  0  0  0  0
    1.9461    0.8046    1.7590 H   0  0  0  0  0  0  0  0  0  0  0  0
   -0.9439    1.8230   -0.2345 H   0  0  0  0  0  0  0  0  0  0  0  0
    0.6368    1.7511    0.7320 H   0  0  0  0  0  0  0  0  0  0  0  0
   -1.6139   -1.7821    0.2843 H   0  0  0  0  0  0  0  0  0  0  0  0
   -3.4607   -1.6231   -2.1206 H   0  0  0  0  0  0  0  0  0  0  0  0
   -3.7787   -1.9711   -0.4105 H   0  0  0  0  0  0  0  0  0  0  0  0
   -4.7016   -0.6252   -1.1750 H   0  0  0  0  0  0  0  0  0  0  0  0
  1  2  1  0
  1 11  1  0
  1 12  1  0
  1 13  1  0
  2  3  1  0
  2 14  1  0
  3  4  2  0
  3  5  1  0
  5  6  2  3
  5  7  1  0
  6 15  1  0
  6 16  1  0
  7  8  1  0
  7 17  1  0
  8  9  1  0
  8 10  2  0
  9 18  1  0
  9 19  1  0
  9 20  1  0
M  END

> <RosettaParamsInstructions>
M  ROOT 7
M  POLY_N_BB 7
M  POLY_CA_BB 5
M  POLY_C_BB 3
M  POLY_O_BB 4
M  POLY_IGNORE 1 10 9 14 11 12 13 18 19 20
M  POLY_UPPER 2
M  POLY_LOWER 8
M  POLY_CHG 0
M  POLY_PROPERTIES PROTEIN POLYMER ALPHA_AA ALIPHATIC
M  END

$$$$
DHA_new
     RDKit          3D

 20 19  0  0  0  0  0  0  0  0999 V2000
    2.6721   -1.0234    2.5820 C   0  0  0  0  0  0  0  0  0  0  0  0
    1.6755   -0.2241    1.8628 N   0  0  0  0  0  0  0  0  0  0  0  0
    0.5725   -0.8389    1.3181 C   0  0  0  0  0  0  0  0  0  0  0  0
    0.4222   -2.0939    1.4402 O   0  0  0  0  0  0  0  0  0  0  0  0
   -0.4664   -0.0881    0.5822 C   0  0  0  0  0  0  0  0  0  0  0  0
   -0.3437    1.2093    0.4368 C   0  0  0  0  0  0  0  0  0  0  0  0
   -1.5773   -0.7868    0.0469 N   0  0  0  0  0  0  0  0  0  0  0  0
   -2.6209   -0.2281   -0.6596 C   0  0  0  0  0  0  0  0  0  0  0  0
   -3.7170   -1.1758   -1.1444 C   0  0  0  0  0  0  0  0  0  0  0  0
   -2.7897    0.9662   -0.9589 O   0  0  0  0  0  0  0  0  0  0  0  0
    3.6693   -0.5729    2.4883 H   0  0  0  0  0  0  0  0  0  0  0  0
    2.3657   -1.1876    3.6421 H   0  0  0  0  0  0  0  0  0  0  0  0
    2.7355   -2.0336    2.1170 H   0  0  0  0  0  0  0  0  0  0  0  0
    1.8735    0.7768    1.8113 H   0  0  0  0  0  0  0  0  0  0  0  0
    0.5322    1.7267    0.8644 H   0  0  0  0  0  0  0  0  0  0  0  0
   -1.0547    1.8120   -0.0817 H   0  0  0  0  0  0  0  0  0  0  0  0
   -1.5982   -1.8392    0.2110 H   0  0  0  0  0  0  0  0  0  0  0  0
   -3.9881   -0.8305   -2.1771 H   0  0  0  0  0  0  0  0  0  0  0  0
   -4.6101   -1.0161   -0.5143 H   0  0  0  0  0  0  0  0  0  0  0  0
   -3.3588   -2.2040   -1.1264 H   0  0  0  0  0  0  0  0  0  0  0  0
  1  2  1  0
  1 11  1  0
  1 12  1  0
  1 13  1  0
  2  3  1  0
  2 14  1  0
  3  4  2  0
  3  5  1  0
  5  6  2  3
  5  7  1  0
  6 15  1  0
  6 16  1  0
  7  8  1  0
  7 17  1  0
  8  9  1  0
  8 10  2  0
  9 18  1  0
  9 19  1  0
  9 20  1  0
M  END

> <RosettaParamsInstructions>
M  ROOT 7
M  POLY_N_BB 7
M  POLY_CA_BB 5
M  POLY_C_BB 3
M  POLY_O_BB 4
M  POLY_IGNORE 1 10 9 14 11 12 13 18 19 20
M  POLY_UPPER 2
M  POLY_LOWER 8
M  POLY_CHG 0
M  POLY_PROPERTIES PROTEIN POLYMER ALPHA_AA ALIPHATIC
M  END

$$$$
DHA_new
     RDKit          3D

 20 19  0  0  0  0  0  0  0  0999 V2000
    2.7154   -1.0404    2.5614 C   0  0  0  0  0  0  0  0  0  0  0  0
    1.6922   -0.2311    1.8553 N   0  0  0  0  0  0  0  0  0  0  0  0
    0.5753   -0.8455    1.2943 C   0  0  0  0  0  0  0  0  0  0  0  0
    0.4512   -2.1024    1.3986 O   0  0  0  0  0  0  0  0  0  0  0  0
   -0.4637   -0.0886    0.5863 C   0  0  0  0  0  0  0  0  0  0  0  0
   -0.3152    1.2107    0.4902 C   0  0  0  0  0  0  0  0  0  0  0  0
   -1.5771   -0.7601    0.0354 N   0  0  0  0  0  0  0  0  0  0  0  0
   -2.6691   -0.2509   -0.6687 C   0  0  0  0  0  0  0  0  0  0  0  0
   -3.7641   -1.1610   -1.1755 C   0  0  0  0  0  0  0  0  0  0  0  0
   -2.8080    0.9551   -0.9182 O   0  0  0  0  0  0  0  0  0  0  0  0
    2.2403   -1.9809    2.8698 H   0  0  0  0  0  0  0  0  0  0  0  0
    3.0642   -0.4974    3.4697 H   0  0  0  0  0  0  0  0  0  0  0  0
    3.5452   -1.2936    1.8697 H   0  0  0  0  0  0  0  0  0  0  0  0
    1.9063    0.7838    1.8370 H   0  0  0  0  0  0  0  0  0  0  0  0
   -1.0442    1.8211   -0.0176 H   0  0  0  0  0  0  0  0  0  0  0  0
    0.5393    1.7437    0.9106 H   0  0  0  0  0  0  0  0  0  0  0  0
   -1.5910   -1.8247    0.1765 H   0  0  0  0  0  0  0  0  0  0  0  0
   -3.5448   -2.2018   -0.9407 H   0  0  0  0  0  0  0  0  0  0  0  0
   -4.6816   -0.8597   -0.6212 H   0  0  0  0  0  0  0  0  0  0  0  0
   -3.8769   -1.0285   -2.2721 H   0  0  0  0  0  0  0  0  0  0  0  0
  1  2  1  0
  1 11  1  0
  1 12  1  0
  1 13  1  0
  2  3  1  0
  2 14  1  0
  3  4  2  0
  3  5  1  0
  5  6  2  3
  5  7  1  0
  6 15  1  0
  6 16  1  0
  7  8  1  0
  7 17  1  0
  8  9  1  0
  8 10  2  0
  9 18  1  0
  9 19  1  0
  9 20  1  0
M  END

> <RosettaParamsInstructions>
M  ROOT 7
M  POLY_N_BB 7
M  POLY_CA_BB 5
M  POLY_C_BB 3
M  POLY_O_BB 4
M  POLY_IGNORE 1 10 9 14 11 12 13 18 19 20
M  POLY_UPPER 2
M  POLY_LOWER 8
M  POLY_CHG 0
M  POLY_PROPERTIES PROTEIN POLYMER ALPHA_AA ALIPHATIC
M  END

$$$$
DHA_new
     RDKit          3D

 20 19  0  0  0  0  0  0  0  0999 V2000
    2.6682   -1.0695    2.5627 C   0  0  0  0  0  0  0  0  0  0  0  0
    1.6454   -0.2255    1.9008 N   0  0  0  0  0  0  0  0  0  0  0  0
    0.5660   -0.8578    1.2830 C   0  0  0  0  0  0  0  0  0  0  0  0
    0.4930   -2.1169    1.3057 O   0  0  0  0  0  0  0  0  0  0  0  0
   -0.4861   -0.0700    0.6064 C   0  0  0  0  0  0  0  0  0  0  0  0
   -0.3911    1.2412    0.5942 C   0  0  0  0  0  0  0  0  0  0  0  0
   -1.5622   -0.7588   -0.0064 N   0  0  0  0  0  0  0  0  0  0  0  0
   -2.6409   -0.2277   -0.6854 C   0  0  0  0  0  0  0  0  0  0  0  0
   -3.6787   -1.1540   -1.2624 C   0  0  0  0  0  0  0  0  0  0  0  0
   -2.8381    0.9840   -0.8686 O   0  0  0  0  0  0  0  0  0  0  0  0
    2.6871   -0.8524    3.6464 H   0  0  0  0  0  0  0  0  0  0  0  0
    3.6322   -0.7865    2.0938 H   0  0  0  0  0  0  0  0  0  0  0  0
    2.4327   -2.1395    2.4301 H   0  0  0  0  0  0  0  0  0  0  0  0
    1.8235    0.7955    1.9541 H   0  0  0  0  0  0  0  0  0  0  0  0
   -1.1212    1.8621    0.1207 H   0  0  0  0  0  0  0  0  0  0  0  0
    0.4398    1.7595    1.0681 H   0  0  0  0  0  0  0  0  0  0  0  0
   -1.5247   -1.8310    0.0731 H   0  0  0  0  0  0  0  0  0  0  0  0
   -3.2753   -1.6431   -2.1710 H   0  0  0  0  0  0  0  0  0  0  0  0
   -4.6368   -0.6351   -1.4357 H   0  0  0  0  0  0  0  0  0  0  0  0
   -3.8394   -1.9266   -0.4686 H   0  0  0  0  0  0  0  0  0  0  0  0
  1  2  1  0
  1 11  1  0
  1 12  1  0
  1 13  1  0
  2  3  1  0
  2 14  1  0
  3  4  2  0
  3  5  1  0
  5  6  2  3
  5  7  1  0
  6 15  1  0
  6 16  1  0
  7  8  1  0
  7 17  1  0
  8  9  1  0
  8 10  2  0
  9 18  1  0
  9 19  1  0
  9 20  1  0
M  END

> <RosettaParamsInstructions>
M  ROOT 7
M  POLY_N_BB 7
M  POLY_CA_BB 5
M  POLY_C_BB 3
M  POLY_O_BB 4
M  POLY_IGNORE 1 10 9 14 11 12 13 18 19 20
M  POLY_UPPER 2
M  POLY_LOWER 8
M  POLY_CHG 0
M  POLY_PROPERTIES PROTEIN POLYMER ALPHA_AA ALIPHATIC
M  END

$$$$
DHA_new
     RDKit          3D

 20 19  0  0  0  0  0  0  0  0999 V2000
    2.7428   -1.0634    2.5259 C   0  0  0  0  0  0  0  0  0  0  0  0
    1.6943   -0.2627    1.8647 N   0  0  0  0  0  0  0  0  0  0  0  0
    0.5833   -0.8357    1.2747 C   0  0  0  0  0  0  0  0  0  0  0  0
    0.4836   -2.1086    1.3168 O   0  0  0  0  0  0  0  0  0  0  0  0
   -0.4769   -0.0901    0.6112 C   0  0  0  0  0  0  0  0  0  0  0  0
   -0.4038    1.2136    0.5516 C   0  0  0  0  0  0  0  0  0  0  0  0
   -1.5820   -0.7973    0.0353 N   0  0  0  0  0  0  0  0  0  0  0  0
   -2.6663   -0.2419   -0.6269 C   0  0  0  0  0  0  0  0  0  0  0  0
   -3.7546   -1.1564   -1.1770 C   0  0  0  0  0  0  0  0  0  0  0  0
   -2.8835    0.9626   -0.8446 O   0  0  0  0  0  0  0  0  0  0  0  0
    3.7312   -0.7167    2.1606 H   0  0  0  0  0  0  0  0  0  0  0  0
    2.6854   -0.8595    3.6290 H   0  0  0  0  0  0  0  0  0  0  0  0
    2.6098   -2.1178    2.2805 H   0  0  0  0  0  0  0  0  0  0  0  0
    1.8643    0.7493    1.8830 H   0  0  0  0  0  0  0  0  0  0  0  0
    0.4692    1.7012    1.0122 H   0  0  0  0  0  0  0  0  0  0  0  0
   -1.1544    1.8418    0.0739 H   0  0  0  0  0  0  0  0  0  0  0  0
   -1.5756   -1.8595    0.1215 H   0  0  0  0  0  0  0  0  0  0  0  0
   -4.6760   -0.9659   -0.6037 H   0  0  0  0  0  0  0  0  0  0  0  0
   -3.8807   -0.8416   -2.2327 H   0  0  0  0  0  0  0  0  0  0  0  0
   -3.4165   -2.2034   -1.1151 H   0  0  0  0  0  0  0  0  0  0  0  0
  1  2  1  0
  1 11  1  0
  1 12  1  0
  1 13  1  0
  2  3  1  0
  2 14  1  0
  3  4  2  0
  3  5  1  0
  5  6  2  3
  5  7  1  0
  6 15  1  0
  6 16  1  0
  7  8  1  0
  7 17  1  0
  8  9  1  0
  8 10  2  0
  9 18  1  0
  9 19  1  0
  9 20  1  0
M  END

> <RosettaParamsInstructions>
M  ROOT 7
M  POLY_N_BB 7
M  POLY_CA_BB 5
M  POLY_C_BB 3
M  POLY_O_BB 4
M  POLY_IGNORE 1 10 9 14 11 12 13 18 19 20
M  POLY_UPPER 2
M  POLY_LOWER 8
M  POLY_CHG 0
M  POLY_PROPERTIES PROTEIN POLYMER ALPHA_AA ALIPHATIC
M  END

$$$$
DHA_new
     RDKit          3D

 20 19  0  0  0  0  0  0  0  0999 V2000
    2.6563   -1.0890    2.5693 C   0  0  0  0  0  0  0  0  0  0  0  0
    1.6865   -0.2318    1.8622 N   0  0  0  0  0  0  0  0  0  0  0  0
    0.5636   -0.8532    1.3084 C   0  0  0  0  0  0  0  0  0  0  0  0
    0.4152   -2.1055    1.4274 O   0  0  0  0  0  0  0  0  0  0  0  0
   -0.4443   -0.0528    0.5884 C   0  0  0  0  0  0  0  0  0  0  0  0
   -0.2932    1.2516    0.4624 C   0  0  0  0  0  0  0  0  0  0  0  0
   -1.5672   -0.7420    0.0458 N   0  0  0  0  0  0  0  0  0  0  0  0
   -2.6405   -0.2170   -0.6672 C   0  0  0  0  0  0  0  0  0  0  0  0
   -3.7176   -1.1781   -1.1384 C   0  0  0  0  0  0  0  0  0  0  0  0
   -2.8504    0.9738   -0.9854 O   0  0  0  0  0  0  0  0  0  0  0  0
    3.6581   -0.5915    2.5252 H   0  0  0  0  0  0  0  0  0  0  0  0
    2.3425   -1.1520    3.6282 H   0  0  0  0  0  0  0  0  0  0  0  0
    2.7117   -2.0866    2.0983 H   0  0  0  0  0  0  0  0  0  0  0  0
    1.8645    0.7745    1.8009 H   0  0  0  0  0  0  0  0  0  0  0  0
   -1.0396    1.8389   -0.0699 H   0  0  0  0  0  0  0  0  0  0  0  0
    0.5532    1.7947    0.8675 H   0  0  0  0  0  0  0  0  0  0  0  0
   -1.5772   -1.7964    0.2131 H   0  0  0  0  0  0  0  0  0  0  0  0
   -3.6979   -2.0775   -0.5047 H   0  0  0  0  0  0  0  0  0  0  0  0
   -3.5110   -1.4453   -2.1885 H   0  0  0  0  0  0  0  0  0  0  0  0
   -4.7190   -0.6669   -1.1022 H   0  0  0  0  0  0  0  0  0  0  0  0
  1  2  1  0
  1 11  1  0
  1 12  1  0
  1 13  1  0
  2  3  1  0
  2 14  1  0
  3  4  2  0
  3  5  1  0
  5  6  2  3
  5  7  1  0
  6 15  1  0
  6 16  1  0
  7  8  1  0
  7 17  1  0
  8  9  1  0
  8 10  2  0
  9 18  1  0
  9 19  1  0
  9 20  1  0
M  END

> <RosettaParamsInstructions>
M  ROOT 7
M  POLY_N_BB 7
M  POLY_CA_BB 5
M  POLY_C_BB 3
M  POLY_O_BB 4
M  POLY_IGNORE 1 10 9 14 11 12 13 18 19 20
M  POLY_UPPER 2
M  POLY_LOWER 8
M  POLY_CHG 0
M  POLY_PROPERTIES PROTEIN POLYMER ALPHA_AA ALIPHATIC
M  END

$$$$
DHA_new
     RDKit          3D

 20 19  0  0  0  0  0  0  0  0999 V2000
    2.6464   -1.0076    2.6750 C   0  0  0  0  0  0  0  0  0  0  0  0
    1.6807   -0.2538    1.8537 N   0  0  0  0  0  0  0  0  0  0  0  0
    0.5352   -0.8389    1.3570 C   0  0  0  0  0  0  0  0  0  0  0  0
    0.3118   -2.0475    1.6133 O   0  0  0  0  0  0  0  0  0  0  0  0
   -0.4415   -0.1017    0.5345 C   0  0  0  0  0  0  0  0  0  0  0  0
   -0.2122    1.1671    0.2622 C   0  0  0  0  0  0  0  0  0  0  0  0
   -1.5868   -0.8089    0.0773 N   0  0  0  0  0  0  0  0  0  0  0  0
   -2.6033   -0.2693   -0.7052 C   0  0  0  0  0  0  0  0  0  0  0  0
   -3.7882   -1.1343   -1.1352 C   0  0  0  0  0  0  0  0  0  0  0  0
   -2.6719    0.8921   -1.1212 O   0  0  0  0  0  0  0  0  0  0  0  0
    3.6825   -0.7579    2.4079 H   0  0  0  0  0  0  0  0  0  0  0  0
    2.4650   -2.0933    2.5387 H   0  0  0  0  0  0  0  0  0  0  0  0
    2.4571   -0.7518    3.7244 H   0  0  0  0  0  0  0  0  0  0  0  0
    1.9398    0.7241    1.6932 H   0  0  0  0  0  0  0  0  0  0  0  0
    0.6840    1.6530    0.6417 H   0  0  0  0  0  0  0  0  0  0  0  0
   -0.8763    1.7780   -0.3324 H   0  0  0  0  0  0  0  0  0  0  0  0
   -1.6979   -1.8421    0.3443 H   0  0  0  0  0  0  0  0  0  0  0  0
   -3.9494   -0.9445   -2.2044 H   0  0  0  0  0  0  0  0  0  0  0  0
   -3.5211   -2.1921   -0.9372 H   0  0  0  0  0  0  0  0  0  0  0  0
   -4.6603   -0.8228   -0.5468 H   0  0  0  0  0  0  0  0  0  0  0  0
  1  2  1  0
  1 11  1  0
  1 12  1  0
  1 13  1  0
  2  3  1  0
  2 14  1  0
  3  4  2  0
  3  5  1  0
  5  6  2  3
  5  7  1  0
  6 15  1  0
  6 16  1  0
  7  8  1  0
  7 17  1  0
  8  9  1  0
  8 10  2  0
  9 18  1  0
  9 19  1  0
  9 20  1  0
M  END

> <RosettaParamsInstructions>
M  ROOT 7
M  POLY_N_BB 7
M  POLY_CA_BB 5
M  POLY_C_BB 3
M  POLY_O_BB 4
M  POLY_IGNORE 1 10 9 14 11 12 13 18 19 20
M  POLY_UPPER 2
M  POLY_LOWER 8
M  POLY_CHG 0
M  POLY_PROPERTIES PROTEIN POLYMER ALPHA_AA ALIPHATIC
M  END

$$$$
DHA_new
     RDKit          3D

 20 19  0  0  0  0  0  0  0  0999 V2000
    2.6799   -1.0332    2.5812 C   0  0  0  0  0  0  0  0  0  0  0  0
    1.6725   -0.2235    1.8581 N   0  0  0  0  0  0  0  0  0  0  0  0
    0.5643   -0.8666    1.3208 C   0  0  0  0  0  0  0  0  0  0  0  0
    0.4268   -2.1257    1.4529 O   0  0  0  0  0  0  0  0  0  0  0  0
   -0.4712   -0.0995    0.5878 C   0  0  0  0  0  0  0  0  0  0  0  0
   -0.3526    1.1957    0.4381 C   0  0  0  0  0  0  0  0  0  0  0  0
   -1.5836   -0.7774    0.0553 N   0  0  0  0  0  0  0  0  0  0  0  0
   -2.6231   -0.2000   -0.6467 C   0  0  0  0  0  0  0  0  0  0  0  0
   -3.7313   -1.1389   -1.1332 C   0  0  0  0  0  0  0  0  0  0  0  0
   -2.8129    0.9958   -0.9588 O   0  0  0  0  0  0  0  0  0  0  0  0
    3.3974   -1.3995    1.8238 H   0  0  0  0  0  0  0  0  0  0  0  0
    3.1574   -0.4308    3.3736 H   0  0  0  0  0  0  0  0  0  0  0  0
    2.1608   -1.9313    2.9763 H   0  0  0  0  0  0  0  0  0  0  0  0
    1.8975    0.7758    1.8206 H   0  0  0  0  0  0  0  0  0  0  0  0
   -1.0554    1.8186   -0.0768 H   0  0  0  0  0  0  0  0  0  0  0  0
    0.5314    1.6995    0.8695 H   0  0  0  0  0  0  0  0  0  0  0  0
   -1.6070   -1.8297    0.2195 H   0  0  0  0  0  0  0  0  0  0  0  0
   -3.4182   -1.4187   -2.1595 H   0  0  0  0  0  0  0  0  0  0  0  0
   -4.6919   -0.6216   -1.1513 H   0  0  0  0  0  0  0  0  0  0  0  0
   -3.7473   -2.0414   -0.5102 H   0  0  0  0  0  0  0  0  0  0  0  0
  1  2  1  0
  1 11  1  0
  1 12  1  0
  1 13  1  0
  2  3  1  0
  2 14  1  0
  3  4  2  0
  3  5  1  0
  5  6  2  3
  5  7  1  0
  6 15  1  0
  6 16  1  0
  7  8  1  0
  7 17  1  0
  8  9  1  0
  8 10  2  0
  9 18  1  0
  9 19  1  0
  9 20  1  0
M  END

> <RosettaParamsInstructions>
M  ROOT 7
M  POLY_N_BB 7
M  POLY_CA_BB 5
M  POLY_C_BB 3
M  POLY_O_BB 4
M  POLY_IGNORE 1 10 9 14 11 12 13 18 19 20
M  POLY_UPPER 2
M  POLY_LOWER 8
M  POLY_CHG 0
M  POLY_PROPERTIES PROTEIN POLYMER ALPHA_AA ALIPHATIC
M  END

$$$$
DHA_new
     RDKit          3D

 20 19  0  0  0  0  0  0  0  0999 V2000
    2.7460   -1.0478    2.5189 C   0  0  0  0  0  0  0  0  0  0  0  0
    1.6893   -0.2439    1.8646 N   0  0  0  0  0  0  0  0  0  0  0  0
    0.5887   -0.8476    1.2724 C   0  0  0  0  0  0  0  0  0  0  0  0
    0.4982   -2.1000    1.2984 O   0  0  0  0  0  0  0  0  0  0  0  0
   -0.4811   -0.1068    0.6145 C   0  0  0  0  0  0  0  0  0  0  0  0
   -0.3938    1.2036    0.5832 C   0  0  0  0  0  0  0  0  0  0  0  0
   -1.5734   -0.8323    0.0348 N   0  0  0  0  0  0  0  0  0  0  0  0
   -2.6409   -0.2418   -0.6124 C   0  0  0  0  0  0  0  0  0  0  0  0
   -3.7318   -1.1409   -1.1807 C   0  0  0  0  0  0  0  0  0  0  0  0
   -2.8583    0.9694   -0.8118 O   0  0  0  0  0  0  0  0  0  0  0  0
    3.7009   -0.4669    2.5126 H   0  0  0  0  0  0  0  0  0  0  0  0
    2.8217   -1.9774    1.9146 H   0  0  0  0  0  0  0  0  0  0  0  0
    2.4001   -1.2439    3.5516 H   0  0  0  0  0  0  0  0  0  0  0  0
    1.8146    0.7801    1.8727 H   0  0  0  0  0  0  0  0  0  0  0  0
    0.4371    1.7025    1.0275 H   0  0  0  0  0  0  0  0  0  0  0  0
   -1.1333    1.8326    0.1212 H   0  0  0  0  0  0  0  0  0  0  0  0
   -1.5493   -1.8883    0.1140 H   0  0  0  0  0  0  0  0  0  0  0  0
   -3.7716   -2.0245   -0.5465 H   0  0  0  0  0  0  0  0  0  0  0  0
   -4.7064   -0.6423   -1.1767 H   0  0  0  0  0  0  0  0  0  0  0  0
   -3.4633   -1.3363   -2.2321 H   0  0  0  0  0  0  0  0  0  0  0  0
  1  2  1  0
  1 11  1  0
  1 12  1  0
  1 13  1  0
  2  3  1  0
  2 14  1  0
  3  4  2  0
  3  5  1  0
  5  6  2  3
  5  7  1  0
  6 15  1  0
  6 16  1  0
  7  8  1  0
  7 17  1  0
  8  9  1  0
  8 10  2  0
  9 18  1  0
  9 19  1  0
  9 20  1  0
M  END

> <RosettaParamsInstructions>
M  ROOT 7
M  POLY_N_BB 7
M  POLY_CA_BB 5
M  POLY_C_BB 3
M  POLY_O_BB 4
M  POLY_IGNORE 1 10 9 14 11 12 13 18 19 20
M  POLY_UPPER 2
M  POLY_LOWER 8
M  POLY_CHG 0
M  POLY_PROPERTIES PROTEIN POLYMER ALPHA_AA ALIPHATIC
M  END

$$$$
DHA_new
     RDKit          3D

 20 19  0  0  0  0  0  0  0  0999 V2000
    2.6827   -1.0563    2.5826 C   0  0  0  0  0  0  0  0  0  0  0  0
    1.6816   -0.2514    1.8625 N   0  0  0  0  0  0  0  0  0  0  0  0
    0.5449   -0.8324    1.2981 C   0  0  0  0  0  0  0  0  0  0  0  0
    0.3916   -2.0733    1.4188 O   0  0  0  0  0  0  0  0  0  0  0  0
   -0.4545   -0.0551    0.5837 C   0  0  0  0  0  0  0  0  0  0  0  0
   -0.3102    1.2533    0.4463 C   0  0  0  0  0  0  0  0  0  0  0  0
   -1.5810   -0.7445    0.0436 N   0  0  0  0  0  0  0  0  0  0  0  0
   -2.6538   -0.2331   -0.6684 C   0  0  0  0  0  0  0  0  0  0  0  0
   -3.7417   -1.1853   -1.1416 C   0  0  0  0  0  0  0  0  0  0  0  0
   -2.7860    0.9607   -0.9476 O   0  0  0  0  0  0  0  0  0  0  0  0
    3.4988   -1.2600    1.8783 H   0  0  0  0  0  0  0  0  0  0  0  0
    2.9674   -0.5153    3.4860 H   0  0  0  0  0  0  0  0  0  0  0  0
    2.1988   -2.0327    2.8370 H   0  0  0  0  0  0  0  0  0  0  0  0
    1.9117    0.7615    1.8251 H   0  0  0  0  0  0  0  0  0  0  0  0
   -1.0287    1.8709   -0.0772 H   0  0  0  0  0  0  0  0  0  0  0  0
    0.5720    1.7386    0.8785 H   0  0  0  0  0  0  0  0  0  0  0  0
   -1.5849   -1.7924    0.2188 H   0  0  0  0  0  0  0  0  0  0  0  0
   -4.5785   -1.1585   -0.4150 H   0  0  0  0  0  0  0  0  0  0  0  0
   -3.3043   -2.2020   -1.2181 H   0  0  0  0  0  0  0  0  0  0  0  0
   -4.0324   -0.8450   -2.1507 H   0  0  0  0  0  0  0  0  0  0  0  0
  1  2  1  0
  1 11  1  0
  1 12  1  0
  1 13  1  0
  2  3  1  0
  2 14  1  0
  3  4  2  0
  3  5  1  0
  5  6  2  3
  5  7  1  0
  6 15  1  0
  6 16  1  0
  7  8  1  0
  7 17  1  0
  8  9  1  0
  8 10  2  0
  9 18  1  0
  9 19  1  0
  9 20  1  0
M  END

> <RosettaParamsInstructions>
M  ROOT 7
M  POLY_N_BB 7
M  POLY_CA_BB 5
M  POLY_C_BB 3
M  POLY_O_BB 4
M  POLY_IGNORE 1 10 9 14 11 12 13 18 19 20
M  POLY_UPPER 2
M  POLY_LOWER 8
M  POLY_CHG 0
M  POLY_PROPERTIES PROTEIN POLYMER ALPHA_AA ALIPHATIC
M  END

$$$$
DHA_new
     RDKit          3D

 20 19  0  0  0  0  0  0  0  0999 V2000
    2.6686   -1.0656    2.5635 C   0  0  0  0  0  0  0  0  0  0  0  0
    1.6861   -0.2223    1.8537 N   0  0  0  0  0  0  0  0  0  0  0  0
    0.5636   -0.8447    1.3014 C   0  0  0  0  0  0  0  0  0  0  0  0
    0.4132   -2.1028    1.4190 O   0  0  0  0  0  0  0  0  0  0  0  0
   -0.4564   -0.0619    0.5795 C   0  0  0  0  0  0  0  0  0  0  0  0
   -0.3208    1.2189    0.4497 C   0  0  0  0  0  0  0  0  0  0  0  0
   -1.5709   -0.7577    0.0439 N   0  0  0  0  0  0  0  0  0  0  0  0
   -2.6498   -0.2063   -0.6745 C   0  0  0  0  0  0  0  0  0  0  0  0
   -3.7332   -1.1358   -1.1539 C   0  0  0  0  0  0  0  0  0  0  0  0
   -2.8308    0.9877   -0.9747 O   0  0  0  0  0  0  0  0  0  0  0  0
    3.6244   -1.1143    2.0058 H   0  0  0  0  0  0  0  0  0  0  0  0
    2.9126   -0.6183    3.5505 H   0  0  0  0  0  0  0  0  0  0  0  0
    2.2400   -2.0596    2.7695 H   0  0  0  0  0  0  0  0  0  0  0  0
    1.9003    0.7767    1.8154 H   0  0  0  0  0  0  0  0  0  0  0  0
   -1.0446    1.8327   -0.0721 H   0  0  0  0  0  0  0  0  0  0  0  0
    0.5466    1.7265    0.8721 H   0  0  0  0  0  0  0  0  0  0  0  0
   -1.6009   -1.8158    0.1990 H   0  0  0  0  0  0  0  0  0  0  0  0
   -4.2332   -0.7586   -2.0529 H   0  0  0  0  0  0  0  0  0  0  0  0
   -4.4424   -1.3163   -0.3317 H   0  0  0  0  0  0  0  0  0  0  0  0
   -3.2789   -2.1148   -1.4223 H   0  0  0  0  0  0  0  0  0  0  0  0
  1  2  1  0
  1 11  1  0
  1 12  1  0
  1 13  1  0
  2  3  1  0
  2 14  1  0
  3  4  2  0
  3  5  1  0
  5  6  2  3
  5  7  1  0
  6 15  1  0
  6 16  1  0
  7  8  1  0
  7 17  1  0
  8  9  1  0
  8 10  2  0
  9 18  1  0
  9 19  1  0
  9 20  1  0
M  END

> <RosettaParamsInstructions>
M  ROOT 7
M  POLY_N_BB 7
M  POLY_CA_BB 5
M  POLY_C_BB 3
M  POLY_O_BB 4
M  POLY_IGNORE 1 10 9 14 11 12 13 18 19 20
M  POLY_UPPER 2
M  POLY_LOWER 8
M  POLY_CHG 0
M  POLY_PROPERTIES PROTEIN POLYMER ALPHA_AA ALIPHATIC
M  END

$$$$
DHA_new
     RDKit          3D

 20 19  0  0  0  0  0  0  0  0999 V2000
    2.6786   -1.0386    2.5800 C   0  0  0  0  0  0  0  0  0  0  0  0
    1.6869   -0.2285    1.8658 N   0  0  0  0  0  0  0  0  0  0  0  0
    0.5599   -0.8391    1.3102 C   0  0  0  0  0  0  0  0  0  0  0  0
    0.4023   -2.1058    1.4300 O   0  0  0  0  0  0  0  0  0  0  0  0
   -0.4454   -0.0799    0.5964 C   0  0  0  0  0  0  0  0  0  0  0  0
   -0.3118    1.1971    0.4609 C   0  0  0  0  0  0  0  0  0  0  0  0
   -1.5723   -0.7622    0.0529 N   0  0  0  0  0  0  0  0  0  0  0  0
   -2.6487   -0.2177   -0.6663 C   0  0  0  0  0  0  0  0  0  0  0  0
   -3.7301   -1.1561   -1.1405 C   0  0  0  0  0  0  0  0  0  0  0  0
   -2.8160    0.9880   -0.9656 O   0  0  0  0  0  0  0  0  0  0  0  0
    3.6629   -0.5677    2.5149 H   0  0  0  0  0  0  0  0  0  0  0  0
    2.3520   -1.1457    3.6279 H   0  0  0  0  0  0  0  0  0  0  0  0
    2.7646   -2.0412    2.1089 H   0  0  0  0  0  0  0  0  0  0  0  0
    1.8757    0.7798    1.8074 H   0  0  0  0  0  0  0  0  0  0  0  0
    0.5399    1.7277    0.8692 H   0  0  0  0  0  0  0  0  0  0  0  0
   -1.0332    1.8035   -0.0615 H   0  0  0  0  0  0  0  0  0  0  0  0
   -1.6285   -1.8222    0.1974 H   0  0  0  0  0  0  0  0  0  0  0  0
   -3.3173   -2.2047   -1.1942 H   0  0  0  0  0  0  0  0  0  0  0  0
   -4.0006   -0.8411   -2.1612 H   0  0  0  0  0  0  0  0  0  0  0  0
   -4.6254   -1.0977   -0.4916 H   0  0  0  0  0  0  0  0  0  0  0  0
  1  2  1  0
  1 11  1  0
  1 12  1  0
  1 13  1  0
  2  3  1  0
  2 14  1  0
  3  4  2  0
  3  5  1  0
  5  6  2  3
  5  7  1  0
  6 15  1  0
  6 16  1  0
  7  8  1  0
  7 17  1  0
  8  9  1  0
  8 10  2  0
  9 18  1  0
  9 19  1  0
  9 20  1  0
M  END

> <RosettaParamsInstructions>
M  ROOT 7
M  POLY_N_BB 7
M  POLY_CA_BB 5
M  POLY_C_BB 3
M  POLY_O_BB 4
M  POLY_IGNORE 1 10 9 14 11 12 13 18 19 20
M  POLY_UPPER 2
M  POLY_LOWER 8
M  POLY_CHG 0
M  POLY_PROPERTIES PROTEIN POLYMER ALPHA_AA ALIPHATIC
M  END

$$$$
DHA_new
     RDKit          3D

 20 19  0  0  0  0  0  0  0  0999 V2000
    2.6129   -1.0595    2.6471 C   0  0  0  0  0  0  0  0  0  0  0  0
    1.6885   -0.2226    1.8656 N   0  0  0  0  0  0  0  0  0  0  0  0
    0.5442   -0.8357    1.3420 C   0  0  0  0  0  0  0  0  0  0  0  0
    0.3578   -2.0683    1.5616 O   0  0  0  0  0  0  0  0  0  0  0  0
   -0.4577   -0.1042    0.5421 C   0  0  0  0  0  0  0  0  0  0  0  0
   -0.2712    1.1703    0.3112 C   0  0  0  0  0  0  0  0  0  0  0  0
   -1.5841   -0.7962    0.0506 N   0  0  0  0  0  0  0  0  0  0  0  0
   -2.6016   -0.2334   -0.7132 C   0  0  0  0  0  0  0  0  0  0  0  0
   -3.7215   -1.1751   -1.1337 C   0  0  0  0  0  0  0  0  0  0  0  0
   -2.6931    0.9561   -1.0886 O   0  0  0  0  0  0  0  0  0  0  0  0
    3.5196   -1.2056    2.0546 H   0  0  0  0  0  0  0  0  0  0  0  0
    2.8787   -0.4791    3.5533 H   0  0  0  0  0  0  0  0  0  0  0  0
    2.1227   -1.9910    2.9529 H   0  0  0  0  0  0  0  0  0  0  0  0
    1.9467    0.7812    1.7510 H   0  0  0  0  0  0  0  0  0  0  0  0
   -0.9437    1.7965   -0.2621 H   0  0  0  0  0  0  0  0  0  0  0  0
    0.6306    1.6743    0.7182 H   0  0  0  0  0  0  0  0  0  0  0  0
   -1.6680   -1.8448    0.2824 H   0  0  0  0  0  0  0  0  0  0  0  0
   -3.5416   -1.4214   -2.1812 H   0  0  0  0  0  0  0  0  0  0  0  0
   -3.7798   -2.0234   -0.4505 H   0  0  0  0  0  0  0  0  0  0  0  0
   -4.6459   -0.5703   -1.0625 H   0  0  0  0  0  0  0  0  0  0  0  0
  1  2  1  0
  1 11  1  0
  1 12  1  0
  1 13  1  0
  2  3  1  0
  2 14  1  0
  3  4  2  0
  3  5  1  0
  5  6  2  3
  5  7  1  0
  6 15  1  0
  6 16  1  0
  7  8  1  0
  7 17  1  0
  8  9  1  0
  8 10  2  0
  9 18  1  0
  9 19  1  0
  9 20  1  0
M  END

> <RosettaParamsInstructions>
M  ROOT 7
M  POLY_N_BB 7
M  POLY_CA_BB 5
M  POLY_C_BB 3
M  POLY_O_BB 4
M  POLY_IGNORE 1 10 9 14 11 12 13 18 19 20
M  POLY_UPPER 2
M  POLY_LOWER 8
M  POLY_CHG 0
M  POLY_PROPERTIES PROTEIN POLYMER ALPHA_AA ALIPHATIC
M  END

$$$$
DHA_new
     RDKit          3D

 20 19  0  0  0  0  0  0  0  0999 V2000
    2.7051   -1.0250    2.5533 C   0  0  0  0  0  0  0  0  0  0  0  0
    1.7083   -0.2376    1.8113 N   0  0  0  0  0  0  0  0  0  0  0  0
    0.5671   -0.8629    1.3170 C   0  0  0  0  0  0  0  0  0  0  0  0
    0.4146   -2.1050    1.5203 O   0  0  0  0  0  0  0  0  0  0  0  0
   -0.4554   -0.1106    0.5688 C   0  0  0  0  0  0  0  0  0  0  0  0
   -0.2627    1.1731    0.3783 C   0  0  0  0  0  0  0  0  0  0  0  0
   -1.5938   -0.7628    0.0822 N   0  0  0  0  0  0  0  0  0  0  0  0
   -2.6492   -0.2153   -0.6368 C   0  0  0  0  0  0  0  0  0  0  0  0
   -3.8043   -1.1213   -1.0736 C   0  0  0  0  0  0  0  0  0  0  0  0
   -2.7800    0.9771   -0.9874 O   0  0  0  0  0  0  0  0  0  0  0  0
    3.2877   -1.5821    1.8145 H   0  0  0  0  0  0  0  0  0  0  0  0
    2.1613   -1.7699    3.1829 H   0  0  0  0  0  0  0  0  0  0  0  0
    3.3198   -0.3862    3.1886 H   0  0  0  0  0  0  0  0  0  0  0  0
    1.9178    0.7600    1.6968 H   0  0  0  0  0  0  0  0  0  0  0  0
    0.6191    1.7212    0.7452 H   0  0  0  0  0  0  0  0  0  0  0  0
   -0.9905    1.7584   -0.1658 H   0  0  0  0  0  0  0  0  0  0  0  0
   -1.6375   -1.8143    0.3022 H   0  0  0  0  0  0  0  0  0  0  0  0
   -3.5521   -2.1689   -0.8255 H   0  0  0  0  0  0  0  0  0  0  0  0
   -4.7245   -0.8489   -0.5587 H   0  0  0  0  0  0  0  0  0  0  0  0
   -3.8575   -1.0312   -2.1727 H   0  0  0  0  0  0  0  0  0  0  0  0
  1  2  1  0
  1 11  1  0
  1 12  1  0
  1 13  1  0
  2  3  1  0
  2 14  1  0
  3  4  2  0
  3  5  1  0
  5  6  2  3
  5  7  1  0
  6 15  1  0
  6 16  1  0
  7  8  1  0
  7 17  1  0
  8  9  1  0
  8 10  2  0
  9 18  1  0
  9 19  1  0
  9 20  1  0
M  END

> <RosettaParamsInstructions>
M  ROOT 7
M  POLY_N_BB 7
M  POLY_CA_BB 5
M  POLY_C_BB 3
M  POLY_O_BB 4
M  POLY_IGNORE 1 10 9 14 11 12 13 18 19 20
M  POLY_UPPER 2
M  POLY_LOWER 8
M  POLY_CHG 0
M  POLY_PROPERTIES PROTEIN POLYMER ALPHA_AA ALIPHATIC
M  END

$$$$
DHA_new
     RDKit          3D

 20 19  0  0  0  0  0  0  0  0999 V2000
    2.7206   -1.0583    2.5628 C   0  0  0  0  0  0  0  0  0  0  0  0
    1.6845   -0.2753    1.8718 N   0  0  0  0  0  0  0  0  0  0  0  0
    0.5713   -0.8457    1.2942 C   0  0  0  0  0  0  0  0  0  0  0  0
    0.4445   -2.1121    1.3689 O   0  0  0  0  0  0  0  0  0  0  0  0
   -0.4690   -0.0764    0.6022 C   0  0  0  0  0  0  0  0  0  0  0  0
   -0.3610    1.2235    0.5127 C   0  0  0  0  0  0  0  0  0  0  0  0
   -1.5777   -0.7504    0.0394 N   0  0  0  0  0  0  0  0  0  0  0  0
   -2.6678   -0.2421   -0.6510 C   0  0  0  0  0  0  0  0  0  0  0  0
   -3.7628   -1.1547   -1.1779 C   0  0  0  0  0  0  0  0  0  0  0  0
   -2.8293    0.9590   -0.8849 O   0  0  0  0  0  0  0  0  0  0  0  0
    2.6780   -2.1265    2.2774 H   0  0  0  0  0  0  0  0  0  0  0  0
    3.6977   -0.6478    2.2417 H   0  0  0  0  0  0  0  0  0  0  0  0
    2.6477   -0.9694    3.6466 H   0  0  0  0  0  0  0  0  0  0  0  0
    1.8548    0.7505    1.8504 H   0  0  0  0  0  0  0  0  0  0  0  0
    0.5127    1.7261    0.9595 H   0  0  0  0  0  0  0  0  0  0  0  0
   -1.1087    1.8017    0.0124 H   0  0  0  0  0  0  0  0  0  0  0  0
   -1.5833   -1.8256    0.1620 H   0  0  0  0  0  0  0  0  0  0  0  0
   -4.7254   -0.7205   -0.8716 H   0  0  0  0  0  0  0  0  0  0  0  0
   -3.7000   -1.1341   -2.2699 H   0  0  0  0  0  0  0  0  0  0  0  0
   -3.6332   -2.1741   -0.8058 H   0  0  0  0  0  0  0  0  0  0  0  0
  1  2  1  0
  1 11  1  0
  1 12  1  0
  1 13  1  0
  2  3  1  0
  2 14  1  0
  3  4  2  0
  3  5  1  0
  5  6  2  3
  5  7  1  0
  6 15  1  0
  6 16  1  0
  7  8  1  0
  7 17  1  0
  8  9  1  0
  8 10  2  0
  9 18  1  0
  9 19  1  0
  9 20  1  0
M  END

> <RosettaParamsInstructions>
M  ROOT 7
M  POLY_N_BB 7
M  POLY_CA_BB 5
M  POLY_C_BB 3
M  POLY_O_BB 4
M  POLY_IGNORE 1 10 9 14 11 12 13 18 19 20
M  POLY_UPPER 2
M  POLY_LOWER 8
M  POLY_CHG 0
M  POLY_PROPERTIES PROTEIN POLYMER ALPHA_AA ALIPHATIC
M  END

$$$$
DHA_new
     RDKit          3D

 20 19  0  0  0  0  0  0  0  0999 V2000
    2.6141   -1.0334    2.6860 C   0  0  0  0  0  0  0  0  0  0  0  0
    1.7009   -0.2381    1.8518 N   0  0  0  0  0  0  0  0  0  0  0  0
    0.5297   -0.8422    1.3706 C   0  0  0  0  0  0  0  0  0  0  0  0
    0.2942   -2.0396    1.6637 O   0  0  0  0  0  0  0  0  0  0  0  0
   -0.4384   -0.1026    0.5238 C   0  0  0  0  0  0  0  0  0  0  0  0
   -0.1919    1.1393    0.2212 C   0  0  0  0  0  0  0  0  0  0  0  0
   -1.5926   -0.7762    0.0779 N   0  0  0  0  0  0  0  0  0  0  0  0
   -2.6141   -0.2553   -0.7216 C   0  0  0  0  0  0  0  0  0  0  0  0
   -3.7911   -1.1364   -1.1060 C   0  0  0  0  0  0  0  0  0  0  0  0
   -2.7019    0.9038   -1.1942 O   0  0  0  0  0  0  0  0  0  0  0  0
    3.6057   -1.0343    2.2111 H   0  0  0  0  0  0  0  0  0  0  0  0
    2.2834   -2.0690    2.7938 H   0  0  0  0  0  0  0  0  0  0  0  0
    2.6958   -0.4967    3.6508 H   0  0  0  0  0  0  0  0  0  0  0  0
    2.0231    0.7309    1.6933 H   0  0  0  0  0  0  0  0  0  0  0  0
    0.6971    1.6304    0.5747 H   0  0  0  0  0  0  0  0  0  0  0  0
   -0.8447    1.7258   -0.3816 H   0  0  0  0  0  0  0  0  0  0  0  0
   -1.6951   -1.7924    0.3848 H   0  0  0  0  0  0  0  0  0  0  0  0
   -3.9064   -1.0281   -2.1915 H   0  0  0  0  0  0  0  0  0  0  0  0
   -3.6028   -2.1742   -0.8069 H   0  0  0  0  0  0  0  0  0  0  0  0
   -4.6713   -0.7637   -0.5608 H   0  0  0  0  0  0  0  0  0  0  0  0
  1  2  1  0
  1 11  1  0
  1 12  1  0
  1 13  1  0
  2  3  1  0
  2 14  1  0
  3  4  2  0
  3  5  1  0
  5  6  2  3
  5  7  1  0
  6 15  1  0
  6 16  1  0
  7  8  1  0
  7 17  1  0
  8  9  1  0
  8 10  2  0
  9 18  1  0
  9 19  1  0
  9 20  1  0
M  END

> <RosettaParamsInstructions>
M  ROOT 7
M  POLY_N_BB 7
M  POLY_CA_BB 5
M  POLY_C_BB 3
M  POLY_O_BB 4
M  POLY_IGNORE 1 10 9 14 11 12 13 18 19 20
M  POLY_UPPER 2
M  POLY_LOWER 8
M  POLY_CHG 0
M  POLY_PROPERTIES PROTEIN POLYMER ALPHA_AA ALIPHATIC
M  END

$$$$
DHA_new
     RDKit          3D

 20 19  0  0  0  0  0  0  0  0999 V2000
    2.6719   -1.0406    2.6099 C   0  0  0  0  0  0  0  0  0  0  0  0
    1.7134   -0.2561    1.8351 N   0  0  0  0  0  0  0  0  0  0  0  0
    0.5436   -0.8336    1.3274 C   0  0  0  0  0  0  0  0  0  0  0  0
    0.3404   -2.0653    1.5622 O   0  0  0  0  0  0  0  0  0  0  0  0
   -0.4310   -0.0870    0.5540 C   0  0  0  0  0  0  0  0  0  0  0  0
   -0.2134    1.1895    0.3147 C   0  0  0  0  0  0  0  0  0  0  0  0
   -1.5925   -0.7836    0.0853 N   0  0  0  0  0  0  0  0  0  0  0  0
   -2.6446   -0.2512   -0.6715 C   0  0  0  0  0  0  0  0  0  0  0  0
   -3.7773   -1.1552   -1.0645 C   0  0  0  0  0  0  0  0  0  0  0  0
   -2.7556    0.9365   -1.0744 O   0  0  0  0  0  0  0  0  0  0  0  0
    3.0586   -1.8247    1.9077 H   0  0  0  0  0  0  0  0  0  0  0  0
    2.1261   -1.5073    3.4531 H   0  0  0  0  0  0  0  0  0  0  0  0
    3.5017   -0.4044    2.8936 H   0  0  0  0  0  0  0  0  0  0  0  0
    1.9673    0.7363    1.6979 H   0  0  0  0  0  0  0  0  0  0  0  0
    0.6632    1.7050    0.6715 H   0  0  0  0  0  0  0  0  0  0  0  0
   -0.8949    1.8208   -0.2572 H   0  0  0  0  0  0  0  0  0  0  0  0
   -1.6708   -1.8171    0.3353 H   0  0  0  0  0  0  0  0  0  0  0  0
   -3.7574   -2.0565   -0.4229 H   0  0  0  0  0  0  0  0  0  0  0  0
   -3.7483   -1.3763   -2.1453 H   0  0  0  0  0  0  0  0  0  0  0  0
   -4.7067   -0.5815   -0.8710 H   0  0  0  0  0  0  0  0  0  0  0  0
  1  2  1  0
  1 11  1  0
  1 12  1  0
  1 13  1  0
  2  3  1  0
  2 14  1  0
  3  4  2  0
  3  5  1  0
  5  6  2  3
  5  7  1  0
  6 15  1  0
  6 16  1  0
  7  8  1  0
  7 17  1  0
  8  9  1  0
  8 10  2  0
  9 18  1  0
  9 19  1  0
  9 20  1  0
M  END

> <RosettaParamsInstructions>
M  ROOT 7
M  POLY_N_BB 7
M  POLY_CA_BB 5
M  POLY_C_BB 3
M  POLY_O_BB 4
M  POLY_IGNORE 1 10 9 14 11 12 13 18 19 20
M  POLY_UPPER 2
M  POLY_LOWER 8
M  POLY_CHG 0
M  POLY_PROPERTIES PROTEIN POLYMER ALPHA_AA ALIPHATIC
M  END

$$$$
DHA_new
     RDKit          3D

 20 19  0  0  0  0  0  0  0  0999 V2000
    2.6647   -1.0617    2.6216 C   0  0  0  0  0  0  0  0  0  0  0  0
    1.7060   -0.2577    1.8451 N   0  0  0  0  0  0  0  0  0  0  0  0
    0.5442   -0.8330    1.3327 C   0  0  0  0  0  0  0  0  0  0  0  0
    0.3401   -2.0635    1.5551 O   0  0  0  0  0  0  0  0  0  0  0  0
   -0.4324   -0.0732    0.5581 C   0  0  0  0  0  0  0  0  0  0  0  0
   -0.2231    1.1959    0.3280 C   0  0  0  0  0  0  0  0  0  0  0  0
   -1.5922   -0.7650    0.0790 N   0  0  0  0  0  0  0  0  0  0  0  0
   -2.6327   -0.2223   -0.6725 C   0  0  0  0  0  0  0  0  0  0  0  0
   -3.7764   -1.1280   -1.0830 C   0  0  0  0  0  0  0  0  0  0  0  0
   -2.7662    0.9562   -1.0756 O   0  0  0  0  0  0  0  0  0  0  0  0
    2.6785   -2.0755    2.1433 H   0  0  0  0  0  0  0  0  0  0  0  0
    2.3618   -1.0790    3.6714 H   0  0  0  0  0  0  0  0  0  0  0  0
    3.6651   -0.6175    2.4502 H   0  0  0  0  0  0  0  0  0  0  0  0
    1.9151    0.7463    1.6883 H   0  0  0  0  0  0  0  0  0  0  0  0
    0.6419    1.6932    0.6905 H   0  0  0  0  0  0  0  0  0  0  0  0
   -0.9181    1.7773   -0.2346 H   0  0  0  0  0  0  0  0  0  0  0  0
   -1.6451   -1.7890    0.3317 H   0  0  0  0  0  0  0  0  0  0  0  0
   -4.5821   -1.0063   -0.3448 H   0  0  0  0  0  0  0  0  0  0  0  0
   -3.4359   -2.1794   -1.0577 H   0  0  0  0  0  0  0  0  0  0  0  0
   -4.1198   -0.8700   -2.0862 H   0  0  0  0  0  0  0  0  0  0  0  0
  1  2  1  0
  1 11  1  0
  1 12  1  0
  1 13  1  0
  2  3  1  0
  2 14  1  0
  3  4  2  0
  3  5  1  0
  5  6  2  3
  5  7  1  0
  6 15  1  0
  6 16  1  0
  7  8  1  0
  7 17  1  0
  8  9  1  0
  8 10  2  0
  9 18  1  0
  9 19  1  0
  9 20  1  0
M  END

> <RosettaParamsInstructions>
M  ROOT 7
M  POLY_N_BB 7
M  POLY_CA_BB 5
M  POLY_C_BB 3
M  POLY_O_BB 4
M  POLY_IGNORE 1 10 9 14 11 12 13 18 19 20
M  POLY_UPPER 2
M  POLY_LOWER 8
M  POLY_CHG 0
M  POLY_PROPERTIES PROTEIN POLYMER ALPHA_AA ALIPHATIC
M  END

$$$$
DHA_new
     RDKit          3D

 20 19  0  0  0  0  0  0  0  0999 V2000
    2.6276   -1.0483    2.6603 C   0  0  0  0  0  0  0  0  0  0  0  0
    1.6872   -0.2344    1.8784 N   0  0  0  0  0  0  0  0  0  0  0  0
    0.5410   -0.8325    1.3465 C   0  0  0  0  0  0  0  0  0  0  0  0
    0.3588   -2.0733    1.5653 O   0  0  0  0  0  0  0  0  0  0  0  0
   -0.4563   -0.0848    0.5478 C   0  0  0  0  0  0  0  0  0  0  0  0
   -0.2766    1.1839    0.3201 C   0  0  0  0  0  0  0  0  0  0  0  0
   -1.5884   -0.7785    0.0497 N   0  0  0  0  0  0  0  0  0  0  0  0
   -2.6250   -0.2287   -0.7201 C   0  0  0  0  0  0  0  0  0  0  0  0
   -3.7486   -1.1405   -1.1553 C   0  0  0  0  0  0  0  0  0  0  0  0
   -2.7148    0.9548   -1.0876 O   0  0  0  0  0  0  0  0  0  0  0  0
    2.1143   -1.8875    3.1397 H   0  0  0  0  0  0  0  0  0  0  0  0
    3.0787   -0.4138    3.4313 H   0  0  0  0  0  0  0  0  0  0  0  0
    3.4432   -1.4330    2.0033 H   0  0  0  0  0  0  0  0  0  0  0  0
    1.9372    0.7755    1.7616 H   0  0  0  0  0  0  0  0  0  0  0  0
    0.6130    1.6993    0.7194 H   0  0  0  0  0  0  0  0  0  0  0  0
   -0.9354    1.8054   -0.2413 H   0  0  0  0  0  0  0  0  0  0  0  0
   -1.6697   -1.8267    0.2784 H   0  0  0  0  0  0  0  0  0  0  0  0
   -3.4653   -1.6050   -2.1010 H   0  0  0  0  0  0  0  0  0  0  0  0
   -3.8512   -1.9238   -0.3893 H   0  0  0  0  0  0  0  0  0  0  0  0
   -4.6764   -0.5605   -1.2663 H   0  0  0  0  0  0  0  0  0  0  0  0
  1  2  1  0
  1 11  1  0
  1 12  1  0
  1 13  1  0
  2  3  1  0
  2 14  1  0
  3  4  2  0
  3  5  1  0
  5  6  2  3
  5  7  1  0
  6 15  1  0
  6 16  1  0
  7  8  1  0
  7 17  1  0
  8  9  1  0
  8 10  2  0
  9 18  1  0
  9 19  1  0
  9 20  1  0
M  END

> <RosettaParamsInstructions>
M  ROOT 7
M  POLY_N_BB 7
M  POLY_CA_BB 5
M  POLY_C_BB 3
M  POLY_O_BB 4
M  POLY_IGNORE 1 10 9 14 11 12 13 18 19 20
M  POLY_UPPER 2
M  POLY_LOWER 8
M  POLY_CHG 0
M  POLY_PROPERTIES PROTEIN POLYMER ALPHA_AA ALIPHATIC
M  END

$$$$
DHA_new
     RDKit          3D

 20 19  0  0  0  0  0  0  0  0999 V2000
    2.6812   -1.0601    2.5797 C   0  0  0  0  0  0  0  0  0  0  0  0
    1.7046   -0.1992    1.8642 N   0  0  0  0  0  0  0  0  0  0  0  0
    0.5863   -0.8363    1.3202 C   0  0  0  0  0  0  0  0  0  0  0  0
    0.4601   -2.0870    1.4587 O   0  0  0  0  0  0  0  0  0  0  0  0
   -0.4576   -0.0831    0.5837 C   0  0  0  0  0  0  0  0  0  0  0  0
   -0.3147    1.2113    0.4475 C   0  0  0  0  0  0  0  0  0  0  0  0
   -1.5594   -0.7973    0.0621 N   0  0  0  0  0  0  0  0  0  0  0  0
   -2.6247   -0.2481   -0.6524 C   0  0  0  0  0  0  0  0  0  0  0  0
   -3.7487   -1.1475   -1.1554 C   0  0  0  0  0  0  0  0  0  0  0  0
   -2.7879    0.9498   -0.9507 O   0  0  0  0  0  0  0  0  0  0  0  0
    2.1419   -1.5386    3.4243 H   0  0  0  0  0  0  0  0  0  0  0  0
    2.9690   -1.8314    1.8435 H   0  0  0  0  0  0  0  0  0  0  0  0
    3.5096   -0.4518    2.9410 H   0  0  0  0  0  0  0  0  0  0  0  0
    1.9048    0.8301    1.8065 H   0  0  0  0  0  0  0  0  0  0  0  0
    0.5333    1.7509    0.8505 H   0  0  0  0  0  0  0  0  0  0  0  0
   -1.0321    1.7966   -0.0701 H   0  0  0  0  0  0  0  0  0  0  0  0
   -1.5658   -1.8513    0.2372 H   0  0  0  0  0  0  0  0  0  0  0  0
   -4.0008   -0.8386   -2.1797 H   0  0  0  0  0  0  0  0  0  0  0  0
   -4.6375   -1.0496   -0.5200 H   0  0  0  0  0  0  0  0  0  0  0  0
   -3.3679   -2.1710   -1.1496 H   0  0  0  0  0  0  0  0  0  0  0  0
  1  2  1  0
  1 11  1  0
  1 12  1  0
  1 13  1  0
  2  3  1  0
  2 14  1  0
  3  4  2  0
  3  5  1  0
  5  6  2  3
  5  7  1  0
  6 15  1  0
  6 16  1  0
  7  8  1  0
  7 17  1  0
  8  9  1  0
  8 10  2  0
  9 18  1  0
  9 19  1  0
  9 20  1  0
M  END

> <RosettaParamsInstructions>
M  ROOT 7
M  POLY_N_BB 7
M  POLY_CA_BB 5
M  POLY_C_BB 3
M  POLY_O_BB 4
M  POLY_IGNORE 1 10 9 14 11 12 13 18 19 20
M  POLY_UPPER 2
M  POLY_LOWER 8
M  POLY_CHG 0
M  POLY_PROPERTIES PROTEIN POLYMER ALPHA_AA ALIPHATIC
M  END

$$$$
DHA_new
     RDKit          3D

 20 19  0  0  0  0  0  0  0  0999 V2000
    2.6583   -1.0426    2.5805 C   0  0  0  0  0  0  0  0  0  0  0  0
    1.6699   -0.2411    1.8836 N   0  0  0  0  0  0  0  0  0  0  0  0
    0.5587   -0.8338    1.3104 C   0  0  0  0  0  0  0  0  0  0  0  0
    0.4121   -2.0806    1.3992 O   0  0  0  0  0  0  0  0  0  0  0  0
   -0.4708   -0.0599    0.5931 C   0  0  0  0  0  0  0  0  0  0  0  0
   -0.3602    1.2437    0.4750 C   0  0  0  0  0  0  0  0  0  0  0  0
   -1.5809   -0.7433    0.0333 N   0  0  0  0  0  0  0  0  0  0  0  0
   -2.6465   -0.2198   -0.6700 C   0  0  0  0  0  0  0  0  0  0  0  0
   -3.7088   -1.1639   -1.1649 C   0  0  0  0  0  0  0  0  0  0  0  0
   -2.8454    0.9743   -0.9556 O   0  0  0  0  0  0  0  0  0  0  0  0
    3.6235   -0.4998    2.7169 H   0  0  0  0  0  0  0  0  0  0  0  0
    2.8778   -1.9517    1.9580 H   0  0  0  0  0  0  0  0  0  0  0  0
    2.3265   -1.4046    3.5547 H   0  0  0  0  0  0  0  0  0  0  0  0
    1.8468    0.7669    1.8462 H   0  0  0  0  0  0  0  0  0  0  0  0
    0.5037    1.7491    0.9144 H   0  0  0  0  0  0  0  0  0  0  0  0
   -1.0855    1.8473   -0.0385 H   0  0  0  0  0  0  0  0  0  0  0  0
   -1.5772   -1.8097    0.1856 H   0  0  0  0  0  0  0  0  0  0  0  0
   -4.1715   -0.7840   -2.1081 H   0  0  0  0  0  0  0  0  0  0  0  0
   -4.4363   -1.2867   -0.3469 H   0  0  0  0  0  0  0  0  0  0  0  0
   -3.2004   -2.1121   -1.4259 H   0  0  0  0  0  0  0  0  0  0  0  0
  1  2  1  0
  1 11  1  0
  1 12  1  0
  1 13  1  0
  2  3  1  0
  2 14  1  0
  3  4  2  0
  3  5  1  0
  5  6  2  3
  5  7  1  0
  6 15  1  0
  6 16  1  0
  7  8  1  0
  7 17  1  0
  8  9  1  0
  8 10  2  0
  9 18  1  0
  9 19  1  0
  9 20  1  0
M  END

> <RosettaParamsInstructions>
M  ROOT 7
M  POLY_N_BB 7
M  POLY_CA_BB 5
M  POLY_C_BB 3
M  POLY_O_BB 4
M  POLY_IGNORE 1 10 9 14 11 12 13 18 19 20
M  POLY_UPPER 2
M  POLY_LOWER 8
M  POLY_CHG 0
M  POLY_PROPERTIES PROTEIN POLYMER ALPHA_AA ALIPHATIC
M  END

$$$$
DHA_new
     RDKit          3D

 20 19  0  0  0  0  0  0  0  0999 V2000
    2.6460   -1.0403    2.6809 C   0  0  0  0  0  0  0  0  0  0  0  0
    1.7359   -0.2463    1.8307 N   0  0  0  0  0  0  0  0  0  0  0  0
    0.5509   -0.8212    1.3707 C   0  0  0  0  0  0  0  0  0  0  0  0
    0.2855   -2.0287    1.7014 O   0  0  0  0  0  0  0  0  0  0  0  0
   -0.4026   -0.1169    0.5312 C   0  0  0  0  0  0  0  0  0  0  0  0
   -0.1503    1.1220    0.1803 C   0  0  0  0  0  0  0  0  0  0  0  0
   -1.5970   -0.7727    0.0981 N   0  0  0  0  0  0  0  0  0  0  0  0
   -2.6203   -0.2659   -0.7026 C   0  0  0  0  0  0  0  0  0  0  0  0
   -3.8266   -1.1126   -1.0660 C   0  0  0  0  0  0  0  0  0  0  0  0
   -2.6750    0.8875   -1.1983 O   0  0  0  0  0  0  0  0  0  0  0  0
    3.2132   -1.7702    2.0709 H   0  0  0  0  0  0  0  0  0  0  0  0
    2.0074   -1.5493    3.4253 H   0  0  0  0  0  0  0  0  0  0  0  0
    3.3088   -0.3390    3.2023 H   0  0  0  0  0  0  0  0  0  0  0  0
    1.9898    0.7319    1.5855 H   0  0  0  0  0  0  0  0  0  0  0  0
   -0.7961    1.7440   -0.4465 H   0  0  0  0  0  0  0  0  0  0  0  0
    0.7467    1.6490    0.4917 H   0  0  0  0  0  0  0  0  0  0  0  0
   -1.7376   -1.7850    0.4231 H   0  0  0  0  0  0  0  0  0  0  0  0
   -4.0720   -0.9488   -2.1272 H   0  0  0  0  0  0  0  0  0  0  0  0
   -3.5820   -2.1885   -0.9195 H   0  0  0  0  0  0  0  0  0  0  0  0
   -4.6311   -0.8011   -0.3910 H   0  0  0  0  0  0  0  0  0  0  0  0
  1  2  1  0
  1 11  1  0
  1 12  1  0
  1 13  1  0
  2  3  1  0
  2 14  1  0
  3  4  2  0
  3  5  1  0
  5  6  2  3
  5  7  1  0
  6 15  1  0
  6 16  1  0
  7  8  1  0
  7 17  1  0
  8  9  1  0
  8 10  2  0
  9 18  1  0
  9 19  1  0
  9 20  1  0
M  END

> <RosettaParamsInstructions>
M  ROOT 7
M  POLY_N_BB 7
M  POLY_CA_BB 5
M  POLY_C_BB 3
M  POLY_O_BB 4
M  POLY_IGNORE 1 10 9 14 11 12 13 18 19 20
M  POLY_UPPER 2
M  POLY_LOWER 8
M  POLY_CHG 0
M  POLY_PROPERTIES PROTEIN POLYMER ALPHA_AA ALIPHATIC
M  END

$$$$
DHA_new
     RDKit          3D

 20 19  0  0  0  0  0  0  0  0999 V2000
    2.6574   -1.0507    2.5955 C   0  0  0  0  0  0  0  0  0  0  0  0
    1.6514   -0.2295    1.9125 N   0  0  0  0  0  0  0  0  0  0  0  0
    0.5573   -0.8679    1.3090 C   0  0  0  0  0  0  0  0  0  0  0  0
    0.4878   -2.1317    1.3821 O   0  0  0  0  0  0  0  0  0  0  0  0
   -0.4836   -0.1077    0.6104 C   0  0  0  0  0  0  0  0  0  0  0  0
   -0.3917    1.1959    0.5472 C   0  0  0  0  0  0  0  0  0  0  0  0
   -1.5789   -0.7721    0.0087 N   0  0  0  0  0  0  0  0  0  0  0  0
   -2.6480   -0.2047   -0.6894 C   0  0  0  0  0  0  0  0  0  0  0  0
   -3.6916   -1.1708   -1.2320 C   0  0  0  0  0  0  0  0  0  0  0  0
   -2.8331    1.0280   -0.9137 O   0  0  0  0  0  0  0  0  0  0  0  0
    3.0765   -0.5091    3.4567 H   0  0  0  0  0  0  0  0  0  0  0  0
    3.4727   -1.2089    1.8600 H   0  0  0  0  0  0  0  0  0  0  0  0
    2.1950   -2.0165    2.8674 H   0  0  0  0  0  0  0  0  0  0  0  0
    1.8348    0.7878    1.9308 H   0  0  0  0  0  0  0  0  0  0  0  0
    0.4537    1.7449    1.0083 H   0  0  0  0  0  0  0  0  0  0  0  0
   -1.0824    1.8750    0.0677 H   0  0  0  0  0  0  0  0  0  0  0  0
   -1.5747   -1.8332    0.1079 H   0  0  0  0  0  0  0  0  0  0  0  0
   -3.1537   -2.0848   -1.5114 H   0  0  0  0  0  0  0  0  0  0  0  0
   -4.4412   -1.4059   -0.4593 H   0  0  0  0  0  0  0  0  0  0  0  0
   -4.1142   -0.6904   -2.1174 H   0  0  0  0  0  0  0  0  0  0  0  0
  1  2  1  0
  1 11  1  0
  1 12  1  0
  1 13  1  0
  2  3  1  0
  2 14  1  0
  3  4  2  0
  3  5  1  0
  5  6  2  3
  5  7  1  0
  6 15  1  0
  6 16  1  0
  7  8  1  0
  7 17  1  0
  8  9  1  0
  8 10  2  0
  9 18  1  0
  9 19  1  0
  9 20  1  0
M  END

> <RosettaParamsInstructions>
M  ROOT 7
M  POLY_N_BB 7
M  POLY_CA_BB 5
M  POLY_C_BB 3
M  POLY_O_BB 4
M  POLY_IGNORE 1 10 9 14 11 12 13 18 19 20
M  POLY_UPPER 2
M  POLY_LOWER 8
M  POLY_CHG 0
M  POLY_PROPERTIES PROTEIN POLYMER ALPHA_AA ALIPHATIC
M  END

$$$$
DHA_new
     RDKit          3D

 20 19  0  0  0  0  0  0  0  0999 V2000
    2.6562   -1.0429    2.5739 C   0  0  0  0  0  0  0  0  0  0  0  0
    1.6903   -0.1959    1.8522 N   0  0  0  0  0  0  0  0  0  0  0  0
    0.5677   -0.8410    1.3172 C   0  0  0  0  0  0  0  0  0  0  0  0
    0.4096   -2.1042    1.4605 O   0  0  0  0  0  0  0  0  0  0  0  0
   -0.4514   -0.0722    0.5790 C   0  0  0  0  0  0  0  0  0  0  0  0
   -0.2752    1.2155    0.4416 C   0  0  0  0  0  0  0  0  0  0  0  0
   -1.5892   -0.7597    0.0431 N   0  0  0  0  0  0  0  0  0  0  0  0
   -2.6512   -0.2197   -0.6774 C   0  0  0  0  0  0  0  0  0  0  0  0
   -3.7430   -1.1604   -1.1391 C   0  0  0  0  0  0  0  0  0  0  0  0
   -2.8395    0.9702   -1.0092 O   0  0  0  0  0  0  0  0  0  0  0  0
    2.1920   -1.9953    2.8943 H   0  0  0  0  0  0  0  0  0  0  0  0
    3.0364   -0.5243    3.4738 H   0  0  0  0  0  0  0  0  0  0  0  0
    3.5043   -1.2954    1.9111 H   0  0  0  0  0  0  0  0  0  0  0  0
    1.9473    0.7915    1.8180 H   0  0  0  0  0  0  0  0  0  0  0  0
   -1.0012    1.8099   -0.0930 H   0  0  0  0  0  0  0  0  0  0  0  0
    0.5855    1.7106    0.8516 H   0  0  0  0  0  0  0  0  0  0  0  0
   -1.6002   -1.8071    0.2321 H   0  0  0  0  0  0  0  0  0  0  0  0
   -4.0239   -0.8827   -2.1679 H   0  0  0  0  0  0  0  0  0  0  0  0
   -4.6408   -1.0610   -0.4901 H   0  0  0  0  0  0  0  0  0  0  0  0
   -3.3801   -2.1883   -1.1309 H   0  0  0  0  0  0  0  0  0  0  0  0
  1  2  1  0
  1 11  1  0
  1 12  1  0
  1 13  1  0
  2  3  1  0
  2 14  1  0
  3  4  2  0
  3  5  1  0
  5  6  2  3
  5  7  1  0
  6 15  1  0
  6 16  1  0
  7  8  1  0
  7 17  1  0
  8  9  1  0
  8 10  2  0
  9 18  1  0
  9 19  1  0
  9 20  1  0
M  END

> <RosettaParamsInstructions>
M  ROOT 7
M  POLY_N_BB 7
M  POLY_CA_BB 5
M  POLY_C_BB 3
M  POLY_O_BB 4
M  POLY_IGNORE 1 10 9 14 11 12 13 18 19 20
M  POLY_UPPER 2
M  POLY_LOWER 8
M  POLY_CHG 0
M  POLY_PROPERTIES PROTEIN POLYMER ALPHA_AA ALIPHATIC
M  END

$$$$
DHA_new
     RDKit          3D

 20 19  0  0  0  0  0  0  0  0999 V2000
    2.6688   -1.0450    2.5901 C   0  0  0  0  0  0  0  0  0  0  0  0
    1.7078   -0.2542    1.8349 N   0  0  0  0  0  0  0  0  0  0  0  0
    0.5571   -0.8423    1.3315 C   0  0  0  0  0  0  0  0  0  0  0  0
    0.3421   -2.0642    1.5279 O   0  0  0  0  0  0  0  0  0  0  0  0
   -0.4274   -0.0848    0.5709 C   0  0  0  0  0  0  0  0  0  0  0  0
   -0.2501    1.2019    0.3357 C   0  0  0  0  0  0  0  0  0  0  0  0
   -1.5739   -0.7542    0.0914 N   0  0  0  0  0  0  0  0  0  0  0  0
   -2.6360   -0.2285   -0.6521 C   0  0  0  0  0  0  0  0  0  0  0  0
   -3.7694   -1.1427   -1.0617 C   0  0  0  0  0  0  0  0  0  0  0  0
   -2.7626    0.9509   -1.0312 O   0  0  0  0  0  0  0  0  0  0  0  0
    2.5749   -2.1174    2.2583 H   0  0  0  0  0  0  0  0  0  0  0  0
    2.4240   -0.9878    3.6688 H   0  0  0  0  0  0  0  0  0  0  0  0
    3.6843   -0.6857    2.3644 H   0  0  0  0  0  0  0  0  0  0  0  0
    1.9281    0.7366    1.7022 H   0  0  0  0  0  0  0  0  0  0  0  0
   -0.9285    1.8287   -0.2158 H   0  0  0  0  0  0  0  0  0  0  0  0
    0.6308    1.7342    0.7005 H   0  0  0  0  0  0  0  0  0  0  0  0
   -1.6578   -1.8010    0.3166 H   0  0  0  0  0  0  0  0  0  0  0  0
   -3.3720   -2.1758   -1.2224 H   0  0  0  0  0  0  0  0  0  0  0  0
   -4.5837   -1.1201   -0.3335 H   0  0  0  0  0  0  0  0  0  0  0  0
   -4.1629   -0.8007   -2.0356 H   0  0  0  0  0  0  0  0  0  0  0  0
  1  2  1  0
  1 11  1  0
  1 12  1  0
  1 13  1  0
  2  3  1  0
  2 14  1  0
  3  4  2  0
  3  5  1  0
  5  6  2  3
  5  7  1  0
  6 15  1  0
  6 16  1  0
  7  8  1  0
  7 17  1  0
  8  9  1  0
  8 10  2  0
  9 18  1  0
  9 19  1  0
  9 20  1  0
M  END

> <RosettaParamsInstructions>
M  ROOT 7
M  POLY_N_BB 7
M  POLY_CA_BB 5
M  POLY_C_BB 3
M  POLY_O_BB 4
M  POLY_IGNORE 1 10 9 14 11 12 13 18 19 20
M  POLY_UPPER 2
M  POLY_LOWER 8
M  POLY_CHG 0
M  POLY_PROPERTIES PROTEIN POLYMER ALPHA_AA ALIPHATIC
M  END

$$$$
DHA_new
     RDKit          3D

 20 19  0  0  0  0  0  0  0  0999 V2000
    2.6499   -1.0455    2.5750 C   0  0  0  0  0  0  0  0  0  0  0  0
    1.6830   -0.2077    1.8526 N   0  0  0  0  0  0  0  0  0  0  0  0
    0.5571   -0.8327    1.3072 C   0  0  0  0  0  0  0  0  0  0  0  0
    0.4209   -2.0857    1.4589 O   0  0  0  0  0  0  0  0  0  0  0  0
   -0.4686   -0.0779    0.5656 C   0  0  0  0  0  0  0  0  0  0  0  0
   -0.3167    1.2110    0.4165 C   0  0  0  0  0  0  0  0  0  0  0  0
   -1.5870   -0.7478    0.0330 N   0  0  0  0  0  0  0  0  0  0  0  0
   -2.6421   -0.2179   -0.6843 C   0  0  0  0  0  0  0  0  0  0  0  0
   -3.7360   -1.1698   -1.1505 C   0  0  0  0  0  0  0  0  0  0  0  0
   -2.7584    0.9916   -0.9762 O   0  0  0  0  0  0  0  0  0  0  0  0
    3.6461   -0.5983    2.6109 H   0  0  0  0  0  0  0  0  0  0  0  0
    2.6589   -2.0645    2.1218 H   0  0  0  0  0  0  0  0  0  0  0  0
    2.2530   -1.1638    3.5975 H   0  0  0  0  0  0  0  0  0  0  0  0
    1.9331    0.7923    1.8147 H   0  0  0  0  0  0  0  0  0  0  0  0
   -0.9983    1.8596   -0.1035 H   0  0  0  0  0  0  0  0  0  0  0  0
    0.5723    1.7105    0.8460 H   0  0  0  0  0  0  0  0  0  0  0  0
   -1.6127   -1.8032    0.2129 H   0  0  0  0  0  0  0  0  0  0  0  0
   -3.1998   -2.0728   -1.4913 H   0  0  0  0  0  0  0  0  0  0  0  0
   -4.3869   -1.3993   -0.2740 H   0  0  0  0  0  0  0  0  0  0  0  0
   -4.2742   -0.7303   -1.9920 H   0  0  0  0  0  0  0  0  0  0  0  0
  1  2  1  0
  1 11  1  0
  1 12  1  0
  1 13  1  0
  2  3  1  0
  2 14  1  0
  3  4  2  0
  3  5  1  0
  5  6  2  3
  5  7  1  0
  6 15  1  0
  6 16  1  0
  7  8  1  0
  7 17  1  0
  8  9  1  0
  8 10  2  0
  9 18  1  0
  9 19  1  0
  9 20  1  0
M  END

> <RosettaParamsInstructions>
M  ROOT 7
M  POLY_N_BB 7
M  POLY_CA_BB 5
M  POLY_C_BB 3
M  POLY_O_BB 4
M  POLY_IGNORE 1 10 9 14 11 12 13 18 19 20
M  POLY_UPPER 2
M  POLY_LOWER 8
M  POLY_CHG 0
M  POLY_PROPERTIES PROTEIN POLYMER ALPHA_AA ALIPHATIC
M  END

$$$$
DHA_new
     RDKit          3D

 20 19  0  0  0  0  0  0  0  0999 V2000
    2.6630   -1.0631    2.5680 C   0  0  0  0  0  0  0  0  0  0  0  0
    1.6935   -0.2206    1.8602 N   0  0  0  0  0  0  0  0  0  0  0  0
    0.5711   -0.8537    1.3105 C   0  0  0  0  0  0  0  0  0  0  0  0
    0.4056   -2.0864    1.4206 O   0  0  0  0  0  0  0  0  0  0  0  0
   -0.4611   -0.0680    0.5756 C   0  0  0  0  0  0  0  0  0  0  0  0
   -0.3251    1.2308    0.4372 C   0  0  0  0  0  0  0  0  0  0  0  0
   -1.5790   -0.7331    0.0340 N   0  0  0  0  0  0  0  0  0  0  0  0
   -2.6425   -0.2141   -0.6745 C   0  0  0  0  0  0  0  0  0  0  0  0
   -3.7177   -1.1656   -1.1431 C   0  0  0  0  0  0  0  0  0  0  0  0
   -2.8221    0.9835   -0.9803 O   0  0  0  0  0  0  0  0  0  0  0  0
    3.2827   -1.5962    1.8325 H   0  0  0  0  0  0  0  0  0  0  0  0
    3.3180   -0.4646    3.2321 H   0  0  0  0  0  0  0  0  0  0  0  0
    2.0776   -1.7601    3.2089 H   0  0  0  0  0  0  0  0  0  0  0  0
    1.9215    0.7884    1.8242 H   0  0  0  0  0  0  0  0  0  0  0  0
    0.5477    1.7437    0.8612 H   0  0  0  0  0  0  0  0  0  0  0  0
   -1.0617    1.8049   -0.0895 H   0  0  0  0  0  0  0  0  0  0  0  0
   -1.5903   -1.7910    0.2047 H   0  0  0  0  0  0  0  0  0  0  0  0
   -4.0815   -0.8234   -2.1268 H   0  0  0  0  0  0  0  0  0  0  0  0
   -4.5148   -1.2004   -0.3713 H   0  0  0  0  0  0  0  0  0  0  0  0
   -3.2913   -2.1632   -1.2434 H   0  0  0  0  0  0  0  0  0  0  0  0
  1  2  1  0
  1 11  1  0
  1 12  1  0
  1 13  1  0
  2  3  1  0
  2 14  1  0
  3  4  2  0
  3  5  1  0
  5  6  2  3
  5  7  1  0
  6 15  1  0
  6 16  1  0
  7  8  1  0
  7 17  1  0
  8  9  1  0
  8 10  2  0
  9 18  1  0
  9 19  1  0
  9 20  1  0
M  END

> <RosettaParamsInstructions>
M  ROOT 7
M  POLY_N_BB 7
M  POLY_CA_BB 5
M  POLY_C_BB 3
M  POLY_O_BB 4
M  POLY_IGNORE 1 10 9 14 11 12 13 18 19 20
M  POLY_UPPER 2
M  POLY_LOWER 8
M  POLY_CHG 0
M  POLY_PROPERTIES PROTEIN POLYMER ALPHA_AA ALIPHATIC
M  END

$$$$
DHA_new
     RDKit          3D

 20 19  0  0  0  0  0  0  0  0999 V2000
    2.6855   -1.0283    2.5920 C   0  0  0  0  0  0  0  0  0  0  0  0
    1.6907   -0.2657    1.8259 N   0  0  0  0  0  0  0  0  0  0  0  0
    0.5330   -0.8756    1.3210 C   0  0  0  0  0  0  0  0  0  0  0  0
    0.3307   -2.1141    1.5249 O   0  0  0  0  0  0  0  0  0  0  0  0
   -0.4623   -0.0993    0.5511 C   0  0  0  0  0  0  0  0  0  0  0  0
   -0.2555    1.1813    0.3389 C   0  0  0  0  0  0  0  0  0  0  0  0
   -1.6031   -0.7887    0.0764 N   0  0  0  0  0  0  0  0  0  0  0  0
   -2.6381   -0.2190   -0.6628 C   0  0  0  0  0  0  0  0  0  0  0  0
   -3.7917   -1.1030   -1.0947 C   0  0  0  0  0  0  0  0  0  0  0  0
   -2.7227    0.9691   -1.0180 O   0  0  0  0  0  0  0  0  0  0  0  0
    3.5809   -1.2445    2.0013 H   0  0  0  0  0  0  0  0  0  0  0  0
    2.2132   -1.9890    2.8813 H   0  0  0  0  0  0  0  0  0  0  0  0
    2.9599   -0.4237    3.4686 H   0  0  0  0  0  0  0  0  0  0  0  0
    1.9284    0.7313    1.7046 H   0  0  0  0  0  0  0  0  0  0  0  0
    0.6335    1.6867    0.7170 H   0  0  0  0  0  0  0  0  0  0  0  0
   -0.9237    1.8247   -0.2095 H   0  0  0  0  0  0  0  0  0  0  0  0
   -1.6859   -1.8299    0.2978 H   0  0  0  0  0  0  0  0  0  0  0  0
   -4.2662   -0.7178   -2.0016 H   0  0  0  0  0  0  0  0  0  0  0  0
   -4.4846   -1.2632   -0.2457 H   0  0  0  0  0  0  0  0  0  0  0  0
   -3.3287   -2.0836   -1.3275 H   0  0  0  0  0  0  0  0  0  0  0  0
  1  2  1  0
  1 11  1  0
  1 12  1  0
  1 13  1  0
  2  3  1  0
  2 14  1  0
  3  4  2  0
  3  5  1  0
  5  6  2  3
  5  7  1  0
  6 15  1  0
  6 16  1  0
  7  8  1  0
  7 17  1  0
  8  9  1  0
  8 10  2  0
  9 18  1  0
  9 19  1  0
  9 20  1  0
M  END

> <RosettaParamsInstructions>
M  ROOT 7
M  POLY_N_BB 7
M  POLY_CA_BB 5
M  POLY_C_BB 3
M  POLY_O_BB 4
M  POLY_IGNORE 1 10 9 14 11 12 13 18 19 20
M  POLY_UPPER 2
M  POLY_LOWER 8
M  POLY_CHG 0
M  POLY_PROPERTIES PROTEIN POLYMER ALPHA_AA ALIPHATIC
M  END

$$$$
DHA_new
     RDKit          3D

 20 19  0  0  0  0  0  0  0  0999 V2000
    2.6912   -1.0425    2.5890 C   0  0  0  0  0  0  0  0  0  0  0  0
    1.6832   -0.2299    1.8659 N   0  0  0  0  0  0  0  0  0  0  0  0
    0.5719   -0.8655    1.3120 C   0  0  0  0  0  0  0  0  0  0  0  0
    0.4166   -2.1198    1.4199 O   0  0  0  0  0  0  0  0  0  0  0  0
   -0.4616   -0.0854    0.5789 C   0  0  0  0  0  0  0  0  0  0  0  0
   -0.3497    1.2114    0.4387 C   0  0  0  0  0  0  0  0  0  0  0  0
   -1.5741   -0.7797    0.0337 N   0  0  0  0  0  0  0  0  0  0  0  0
   -2.6214   -0.2216   -0.6722 C   0  0  0  0  0  0  0  0  0  0  0  0
   -3.7147   -1.1531   -1.1683 C   0  0  0  0  0  0  0  0  0  0  0  0
   -2.8058    0.9667   -0.9697 O   0  0  0  0  0  0  0  0  0  0  0  0
    3.6940   -0.6018    2.3932 H   0  0  0  0  0  0  0  0  0  0  0  0
    2.4891   -1.0375    3.6757 H   0  0  0  0  0  0  0  0  0  0  0  0
    2.6531   -2.0883    2.2459 H   0  0  0  0  0  0  0  0  0  0  0  0
    1.8832    0.7776    1.8236 H   0  0  0  0  0  0  0  0  0  0  0  0
    0.5232    1.7017    0.8752 H   0  0  0  0  0  0  0  0  0  0  0  0
   -1.0832    1.7892   -0.0854 H   0  0  0  0  0  0  0  0  0  0  0  0
   -1.5816   -1.8429    0.1983 H   0  0  0  0  0  0  0  0  0  0  0  0
   -3.7910   -1.0418   -2.2586 H   0  0  0  0  0  0  0  0  0  0  0  0
   -4.6751   -0.8099   -0.7335 H   0  0  0  0  0  0  0  0  0  0  0  0
   -3.5537   -2.1791   -0.8214 H   0  0  0  0  0  0  0  0  0  0  0  0
  1  2  1  0
  1 11  1  0
  1 12  1  0
  1 13  1  0
  2  3  1  0
  2 14  1  0
  3  4  2  0
  3  5  1  0
  5  6  2  3
  5  7  1  0
  6 15  1  0
  6 16  1  0
  7  8  1  0
  7 17  1  0
  8  9  1  0
  8 10  2  0
  9 18  1  0
  9 19  1  0
  9 20  1  0
M  END

> <RosettaParamsInstructions>
M  ROOT 7
M  POLY_N_BB 7
M  POLY_CA_BB 5
M  POLY_C_BB 3
M  POLY_O_BB 4
M  POLY_IGNORE 1 10 9 14 11 12 13 18 19 20
M  POLY_UPPER 2
M  POLY_LOWER 8
M  POLY_CHG 0
M  POLY_PROPERTIES PROTEIN POLYMER ALPHA_AA ALIPHATIC
M  END

$$$$
DHA_new
     RDKit          3D

 20 19  0  0  0  0  0  0  0  0999 V2000
    2.6709   -1.0714    2.5594 C   0  0  0  0  0  0  0  0  0  0  0  0
    1.6621   -0.1988    1.9042 N   0  0  0  0  0  0  0  0  0  0  0  0
    0.5791   -0.8377    1.2920 C   0  0  0  0  0  0  0  0  0  0  0  0
    0.4832   -2.0996    1.3075 O   0  0  0  0  0  0  0  0  0  0  0  0
   -0.4743   -0.0668    0.6161 C   0  0  0  0  0  0  0  0  0  0  0  0
   -0.3890    1.2392    0.5918 C   0  0  0  0  0  0  0  0  0  0  0  0
   -1.5549   -0.7551    0.0082 N   0  0  0  0  0  0  0  0  0  0  0  0
   -2.6460   -0.2294   -0.6761 C   0  0  0  0  0  0  0  0  0  0  0  0
   -3.6823   -1.1822   -1.2422 C   0  0  0  0  0  0  0  0  0  0  0  0
   -2.8363    0.9967   -0.8610 O   0  0  0  0  0  0  0  0  0  0  0  0
    2.3352   -1.2945    3.5878 H   0  0  0  0  0  0  0  0  0  0  0  0
    3.6421   -0.5459    2.5720 H   0  0  0  0  0  0  0  0  0  0  0  0
    2.7561   -1.9724    1.9261 H   0  0  0  0  0  0  0  0  0  0  0  0
    1.8350    0.8075    1.9499 H   0  0  0  0  0  0  0  0  0  0  0  0
   -1.1269    1.8512    0.1141 H   0  0  0  0  0  0  0  0  0  0  0  0
    0.4591    1.7508    1.0706 H   0  0  0  0  0  0  0  0  0  0  0  0
   -1.5136   -1.8260    0.0947 H   0  0  0  0  0  0  0  0  0  0  0  0
   -4.6728   -0.7252   -1.1452 H   0  0  0  0  0  0  0  0  0  0  0  0
   -3.4415   -1.3764   -2.3008 H   0  0  0  0  0  0  0  0  0  0  0  0
   -3.6919   -2.1162   -0.6282 H   0  0  0  0  0  0  0  0  0  0  0  0
  1  2  1  0
  1 11  1  0
  1 12  1  0
  1 13  1  0
  2  3  1  0
  2 14  1  0
  3  4  2  0
  3  5  1  0
  5  6  2  3
  5  7  1  0
  6 15  1  0
  6 16  1  0
  7  8  1  0
  7 17  1  0
  8  9  1  0
  8 10  2  0
  9 18  1  0
  9 19  1  0
  9 20  1  0
M  END

> <RosettaParamsInstructions>
M  ROOT 7
M  POLY_N_BB 7
M  POLY_CA_BB 5
M  POLY_C_BB 3
M  POLY_O_BB 4
M  POLY_IGNORE 1 10 9 14 11 12 13 18 19 20
M  POLY_UPPER 2
M  POLY_LOWER 8
M  POLY_CHG 0
M  POLY_PROPERTIES PROTEIN POLYMER ALPHA_AA ALIPHATIC
M  END

$$$$
DHA_new
     RDKit          3D

 20 19  0  0  0  0  0  0  0  0999 V2000
    2.6000   -1.0428    2.6615 C   0  0  0  0  0  0  0  0  0  0  0  0
    1.6742   -0.2280    1.8675 N   0  0  0  0  0  0  0  0  0  0  0  0
    0.5294   -0.8274    1.3461 C   0  0  0  0  0  0  0  0  0  0  0  0
    0.3068   -2.0515    1.5620 O   0  0  0  0  0  0  0  0  0  0  0  0
   -0.4395   -0.0884    0.5477 C   0  0  0  0  0  0  0  0  0  0  0  0
   -0.2149    1.1844    0.3191 C   0  0  0  0  0  0  0  0  0  0  0  0
   -1.5794   -0.7738    0.0539 N   0  0  0  0  0  0  0  0  0  0  0  0
   -2.6074   -0.2437   -0.7204 C   0  0  0  0  0  0  0  0  0  0  0  0
   -3.7336   -1.1519   -1.1422 C   0  0  0  0  0  0  0  0  0  0  0  0
   -2.7233    0.9330   -1.1278 O   0  0  0  0  0  0  0  0  0  0  0  0
    2.0773   -1.9312    3.0974 H   0  0  0  0  0  0  0  0  0  0  0  0
    3.4084   -1.3321    1.9900 H   0  0  0  0  0  0  0  0  0  0  0  0
    3.0157   -0.4227    3.4760 H   0  0  0  0  0  0  0  0  0  0  0  0
    1.9526    0.7619    1.7525 H   0  0  0  0  0  0  0  0  0  0  0  0
    0.6569    1.6845    0.7037 H   0  0  0  0  0  0  0  0  0  0  0  0
   -0.8984    1.7780   -0.2649 H   0  0  0  0  0  0  0  0  0  0  0  0
   -1.6492   -1.8055    0.3072 H   0  0  0  0  0  0  0  0  0  0  0  0
   -3.9456   -0.9511   -2.1980 H   0  0  0  0  0  0  0  0  0  0  0  0
   -3.4363   -2.2202   -1.0000 H   0  0  0  0  0  0  0  0  0  0  0  0
   -4.6003   -0.9238   -0.4905 H   0  0  0  0  0  0  0  0  0  0  0  0
  1  2  1  0
  1 11  1  0
  1 12  1  0
  1 13  1  0
  2  3  1  0
  2 14  1  0
  3  4  2  0
  3  5  1  0
  5  6  2  3
  5  7  1  0
  6 15  1  0
  6 16  1  0
  7  8  1  0
  7 17  1  0
  8  9  1  0
  8 10  2  0
  9 18  1  0
  9 19  1  0
  9 20  1  0
M  END

> <RosettaParamsInstructions>
M  ROOT 7
M  POLY_N_BB 7
M  POLY_CA_BB 5
M  POLY_C_BB 3
M  POLY_O_BB 4
M  POLY_IGNORE 1 10 9 14 11 12 13 18 19 20
M  POLY_UPPER 2
M  POLY_LOWER 8
M  POLY_CHG 0
M  POLY_PROPERTIES PROTEIN POLYMER ALPHA_AA ALIPHATIC
M  END

$$$$
DHA_new
     RDKit          3D

 20 19  0  0  0  0  0  0  0  0999 V2000
    2.6649   -1.0685    2.5913 C   0  0  0  0  0  0  0  0  0  0  0  0
    1.6775   -0.2330    1.8695 N   0  0  0  0  0  0  0  0  0  0  0  0
    0.5654   -0.8484    1.3170 C   0  0  0  0  0  0  0  0  0  0  0  0
    0.4132   -2.0965    1.4362 O   0  0  0  0  0  0  0  0  0  0  0  0
   -0.4635   -0.0837    0.5825 C   0  0  0  0  0  0  0  0  0  0  0  0
   -0.3208    1.2109    0.4500 C   0  0  0  0  0  0  0  0  0  0  0  0
   -1.5817   -0.7687    0.0381 N   0  0  0  0  0  0  0  0  0  0  0  0
   -2.6471   -0.2539   -0.6759 C   0  0  0  0  0  0  0  0  0  0  0  0
   -3.7425   -1.1502   -1.1715 C   0  0  0  0  0  0  0  0  0  0  0  0
   -2.7718    0.9484   -0.9506 O   0  0  0  0  0  0  0  0  0  0  0  0
    2.9042   -0.5194    3.5387 H   0  0  0  0  0  0  0  0  0  0  0  0
    2.2904   -2.0758    2.7650 H   0  0  0  0  0  0  0  0  0  0  0  0
    3.5538   -1.1289    1.9351 H   0  0  0  0  0  0  0  0  0  0  0  0
    1.8843    0.7770    1.8223 H   0  0  0  0  0  0  0  0  0  0  0  0
   -1.0100    1.8598   -0.0649 H   0  0  0  0  0  0  0  0  0  0  0  0
    0.5450    1.7218    0.8748 H   0  0  0  0  0  0  0  0  0  0  0  0
   -1.5817   -1.8130    0.2129 H   0  0  0  0  0  0  0  0  0  0  0  0
   -3.5510   -1.3731   -2.2294 H   0  0  0  0  0  0  0  0  0  0  0  0
   -4.7278   -0.6660   -1.0266 H   0  0  0  0  0  0  0  0  0  0  0  0
   -3.7075   -2.0908   -0.5736 H   0  0  0  0  0  0  0  0  0  0  0  0
  1  2  1  0
  1 11  1  0
  1 12  1  0
  1 13  1  0
  2  3  1  0
  2 14  1  0
  3  4  2  0
  3  5  1  0
  5  6  2  3
  5  7  1  0
  6 15  1  0
  6 16  1  0
  7  8  1  0
  7 17  1  0
  8  9  1  0
  8 10  2  0
  9 18  1  0
  9 19  1  0
  9 20  1  0
M  END

> <RosettaParamsInstructions>
M  ROOT 7
M  POLY_N_BB 7
M  POLY_CA_BB 5
M  POLY_C_BB 3
M  POLY_O_BB 4
M  POLY_IGNORE 1 10 9 14 11 12 13 18 19 20
M  POLY_UPPER 2
M  POLY_LOWER 8
M  POLY_CHG 0
M  POLY_PROPERTIES PROTEIN POLYMER ALPHA_AA ALIPHATIC
M  END

$$$$
DHA_new
     RDKit          3D

 20 19  0  0  0  0  0  0  0  0999 V2000
    2.7412   -1.0692    2.4905 C   0  0  0  0  0  0  0  0  0  0  0  0
    1.7003   -0.2187    1.8518 N   0  0  0  0  0  0  0  0  0  0  0  0
    0.5983   -0.8501    1.2654 C   0  0  0  0  0  0  0  0  0  0  0  0
    0.4971   -2.1068    1.2817 O   0  0  0  0  0  0  0  0  0  0  0  0
   -0.4679   -0.0992    0.6183 C   0  0  0  0  0  0  0  0  0  0  0  0
   -0.3630    1.2180    0.6005 C   0  0  0  0  0  0  0  0  0  0  0  0
   -1.5685   -0.7885    0.0359 N   0  0  0  0  0  0  0  0  0  0  0  0
   -2.6769   -0.2506   -0.6226 C   0  0  0  0  0  0  0  0  0  0  0  0
   -3.7646   -1.1464   -1.1855 C   0  0  0  0  0  0  0  0  0  0  0  0
   -2.8990    0.9643   -0.8194 O   0  0  0  0  0  0  0  0  0  0  0  0
    3.5116   -1.2265    1.7304 H   0  0  0  0  0  0  0  0  0  0  0  0
    3.1484   -0.5138    3.3776 H   0  0  0  0  0  0  0  0  0  0  0  0
    2.2985   -1.9867    2.8756 H   0  0  0  0  0  0  0  0  0  0  0  0
    1.8787    0.7880    1.8938 H   0  0  0  0  0  0  0  0  0  0  0  0
   -1.1224    1.8331    0.1349 H   0  0  0  0  0  0  0  0  0  0  0  0
    0.4694    1.7512    1.0402 H   0  0  0  0  0  0  0  0  0  0  0  0
   -1.5337   -1.8571    0.1182 H   0  0  0  0  0  0  0  0  0  0  0  0
   -4.5534   -1.2431   -0.4140 H   0  0  0  0  0  0  0  0  0  0  0  0
   -4.2083   -0.7274   -2.0851 H   0  0  0  0  0  0  0  0  0  0  0  0
   -3.2925   -2.1229   -1.4472 H   0  0  0  0  0  0  0  0  0  0  0  0
  1  2  1  0
  1 11  1  0
  1 12  1  0
  1 13  1  0
  2  3  1  0
  2 14  1  0
  3  4  2  0
  3  5  1  0
  5  6  2  3
  5  7  1  0
  6 15  1  0
  6 16  1  0
  7  8  1  0
  7 17  1  0
  8  9  1  0
  8 10  2  0
  9 18  1  0
  9 19  1  0
  9 20  1  0
M  END

> <RosettaParamsInstructions>
M  ROOT 7
M  POLY_N_BB 7
M  POLY_CA_BB 5
M  POLY_C_BB 3
M  POLY_O_BB 4
M  POLY_IGNORE 1 10 9 14 11 12 13 18 19 20
M  POLY_UPPER 2
M  POLY_LOWER 8
M  POLY_CHG 0
M  POLY_PROPERTIES PROTEIN POLYMER ALPHA_AA ALIPHATIC
M  END

$$$$
DHA_new
     RDKit          3D

 20 19  0  0  0  0  0  0  0  0999 V2000
    2.6598   -1.0249    2.5936 C   0  0  0  0  0  0  0  0  0  0  0  0
    1.6711   -0.2243    1.8511 N   0  0  0  0  0  0  0  0  0  0  0  0
    0.5484   -0.8629    1.3176 C   0  0  0  0  0  0  0  0  0  0  0  0
    0.3863   -2.1010    1.4698 O   0  0  0  0  0  0  0  0  0  0  0  0
   -0.4704   -0.1064    0.5662 C   0  0  0  0  0  0  0  0  0  0  0  0
   -0.3133    1.1824    0.4010 C   0  0  0  0  0  0  0  0  0  0  0  0
   -1.5905   -0.7787    0.0410 N   0  0  0  0  0  0  0  0  0  0  0  0
   -2.6239   -0.2225   -0.6789 C   0  0  0  0  0  0  0  0  0  0  0  0
   -3.7340   -1.1546   -1.1463 C   0  0  0  0  0  0  0  0  0  0  0  0
   -2.7242    0.9771   -0.9780 O   0  0  0  0  0  0  0  0  0  0  0  0
    3.6635   -0.6747    2.3209 H   0  0  0  0  0  0  0  0  0  0  0  0
    2.5425   -2.0919    2.2982 H   0  0  0  0  0  0  0  0  0  0  0  0
    2.4919   -0.9559    3.6843 H   0  0  0  0  0  0  0  0  0  0  0  0
    1.9010    0.7787    1.7859 H   0  0  0  0  0  0  0  0  0  0  0  0
    0.5663    1.7042    0.8146 H   0  0  0  0  0  0  0  0  0  0  0  0
   -0.9889    1.8281   -0.1262 H   0  0  0  0  0  0  0  0  0  0  0  0
   -1.6328   -1.8354    0.2274 H   0  0  0  0  0  0  0  0  0  0  0  0
   -3.2834   -2.1352   -1.4119 H   0  0  0  0  0  0  0  0  0  0  0  0
   -4.4265   -1.2337   -0.2823 H   0  0  0  0  0  0  0  0  0  0  0  0
   -4.2493   -0.7204   -2.0074 H   0  0  0  0  0  0  0  0  0  0  0  0
  1  2  1  0
  1 11  1  0
  1 12  1  0
  1 13  1  0
  2  3  1  0
  2 14  1  0
  3  4  2  0
  3  5  1  0
  5  6  2  3
  5  7  1  0
  6 15  1  0
  6 16  1  0
  7  8  1  0
  7 17  1  0
  8  9  1  0
  8 10  2  0
  9 18  1  0
  9 19  1  0
  9 20  1  0
M  END

> <RosettaParamsInstructions>
M  ROOT 7
M  POLY_N_BB 7
M  POLY_CA_BB 5
M  POLY_C_BB 3
M  POLY_O_BB 4
M  POLY_IGNORE 1 10 9 14 11 12 13 18 19 20
M  POLY_UPPER 2
M  POLY_LOWER 8
M  POLY_CHG 0
M  POLY_PROPERTIES PROTEIN POLYMER ALPHA_AA ALIPHATIC
M  END

$$$$
DHA_new
     RDKit          3D

 20 19  0  0  0  0  0  0  0  0999 V2000
    2.7074   -1.0688    2.5120 C   0  0  0  0  0  0  0  0  0  0  0  0
    1.7051   -0.2448    1.8100 N   0  0  0  0  0  0  0  0  0  0  0  0
    0.5744   -0.8498    1.2886 C   0  0  0  0  0  0  0  0  0  0  0  0
    0.4299   -2.1113    1.4305 O   0  0  0  0  0  0  0  0  0  0  0  0
   -0.4625   -0.0882    0.5784 C   0  0  0  0  0  0  0  0  0  0  0  0
   -0.3280    1.2043    0.4254 C   0  0  0  0  0  0  0  0  0  0  0  0
   -1.5968   -0.7646    0.0675 N   0  0  0  0  0  0  0  0  0  0  0  0
   -2.6565   -0.1889   -0.6225 C   0  0  0  0  0  0  0  0  0  0  0  0
   -3.7601   -1.1265   -1.0703 C   0  0  0  0  0  0  0  0  0  0  0  0
   -2.8233    1.0141   -0.9271 O   0  0  0  0  0  0  0  0  0  0  0  0
    3.1230   -1.8391    1.8237 H   0  0  0  0  0  0  0  0  0  0  0  0
    2.1897   -1.5727    3.3413 H   0  0  0  0  0  0  0  0  0  0  0  0
    3.5601   -0.4441    2.8388 H   0  0  0  0  0  0  0  0  0  0  0  0
    1.8847    0.7630    1.7322 H   0  0  0  0  0  0  0  0  0  0  0  0
   -1.0238    1.8505   -0.0750 H   0  0  0  0  0  0  0  0  0  0  0  0
    0.5492    1.7295    0.8200 H   0  0  0  0  0  0  0  0  0  0  0  0
   -1.6048   -1.8098    0.2472 H   0  0  0  0  0  0  0  0  0  0  0  0
   -4.4607   -1.2821   -0.2435 H   0  0  0  0  0  0  0  0  0  0  0  0
   -4.3153   -0.7040   -1.9260 H   0  0  0  0  0  0  0  0  0  0  0  0
   -3.2981   -2.1188   -1.3104 H   0  0  0  0  0  0  0  0  0  0  0  0
  1  2  1  0
  1 11  1  0
  1 12  1  0
  1 13  1  0
  2  3  1  0
  2 14  1  0
  3  4  2  0
  3  5  1  0
  5  6  2  3
  5  7  1  0
  6 15  1  0
  6 16  1  0
  7  8  1  0
  7 17  1  0
  8  9  1  0
  8 10  2  0
  9 18  1  0
  9 19  1  0
  9 20  1  0
M  END

> <RosettaParamsInstructions>
M  ROOT 7
M  POLY_N_BB 7
M  POLY_CA_BB 5
M  POLY_C_BB 3
M  POLY_O_BB 4
M  POLY_IGNORE 1 10 9 14 11 12 13 18 19 20
M  POLY_UPPER 2
M  POLY_LOWER 8
M  POLY_CHG 0
M  POLY_PROPERTIES PROTEIN POLYMER ALPHA_AA ALIPHATIC
M  END

$$$$
DHA_new
     RDKit          3D

 20 19  0  0  0  0  0  0  0  0999 V2000
    2.7219   -1.0735    2.4983 C   0  0  0  0  0  0  0  0  0  0  0  0
    1.7274   -0.2559    1.8066 N   0  0  0  0  0  0  0  0  0  0  0  0
    0.5728   -0.8304    1.2794 C   0  0  0  0  0  0  0  0  0  0  0  0
    0.4158   -2.0917    1.4218 O   0  0  0  0  0  0  0  0  0  0  0  0
   -0.4533   -0.0455    0.5764 C   0  0  0  0  0  0  0  0  0  0  0  0
   -0.2992    1.2483    0.4264 C   0  0  0  0  0  0  0  0  0  0  0  0
   -1.5834   -0.7550    0.0870 N   0  0  0  0  0  0  0  0  0  0  0  0
   -2.6819   -0.2213   -0.6101 C   0  0  0  0  0  0  0  0  0  0  0  0
   -3.7855   -1.1506   -1.0453 C   0  0  0  0  0  0  0  0  0  0  0  0
   -2.8516    0.9875   -0.9217 O   0  0  0  0  0  0  0  0  0  0  0  0
    2.8882   -2.0387    1.9798 H   0  0  0  0  0  0  0  0  0  0  0  0
    2.2954   -1.3346    3.4991 H   0  0  0  0  0  0  0  0  0  0  0  0
    3.6747   -0.5450    2.6398 H   0  0  0  0  0  0  0  0  0  0  0  0
    1.9140    0.7537    1.7259 H   0  0  0  0  0  0  0  0  0  0  0  0
   -1.0161    1.8553   -0.0753 H   0  0  0  0  0  0  0  0  0  0  0  0
    0.5688    1.7996    0.8012 H   0  0  0  0  0  0  0  0  0  0  0  0
   -1.6265   -1.8054    0.2535 H   0  0  0  0  0  0  0  0  0  0  0  0
   -4.6405   -1.1239   -0.3689 H   0  0  0  0  0  0  0  0  0  0  0  0
   -4.0881   -0.8408   -2.0649 H   0  0  0  0  0  0  0  0  0  0  0  0
   -3.3593   -2.1844   -1.1682 H   0  0  0  0  0  0  0  0  0  0  0  0
  1  2  1  0
  1 11  1  0
  1 12  1  0
  1 13  1  0
  2  3  1  0
  2 14  1  0
  3  4  2  0
  3  5  1  0
  5  6  2  3
  5  7  1  0
  6 15  1  0
  6 16  1  0
  7  8  1  0
  7 17  1  0
  8  9  1  0
  8 10  2  0
  9 18  1  0
  9 19  1  0
  9 20  1  0
M  END

> <RosettaParamsInstructions>
M  ROOT 7
M  POLY_N_BB 7
M  POLY_CA_BB 5
M  POLY_C_BB 3
M  POLY_O_BB 4
M  POLY_IGNORE 1 10 9 14 11 12 13 18 19 20
M  POLY_UPPER 2
M  POLY_LOWER 8
M  POLY_CHG 0
M  POLY_PROPERTIES PROTEIN POLYMER ALPHA_AA ALIPHATIC
M  END

$$$$
DHA_new
     RDKit          3D

 20 19  0  0  0  0  0  0  0  0999 V2000
    2.6289   -1.0274    2.6622 C   0  0  0  0  0  0  0  0  0  0  0  0
    1.6681   -0.2463    1.8732 N   0  0  0  0  0  0  0  0  0  0  0  0
    0.5383   -0.8420    1.3558 C   0  0  0  0  0  0  0  0  0  0  0  0
    0.3454   -2.0802    1.5754 O   0  0  0  0  0  0  0  0  0  0  0  0
   -0.4550   -0.0851    0.5539 C   0  0  0  0  0  0  0  0  0  0  0  0
   -0.2815    1.1829    0.3145 C   0  0  0  0  0  0  0  0  0  0  0  0
   -1.5858   -0.7857    0.0641 N   0  0  0  0  0  0  0  0  0  0  0  0
   -2.6073   -0.2562   -0.6932 C   0  0  0  0  0  0  0  0  0  0  0  0
   -3.7719   -1.1208   -1.1587 C   0  0  0  0  0  0  0  0  0  0  0  0
   -2.6881    0.9209   -1.0606 O   0  0  0  0  0  0  0  0  0  0  0  0
    3.4617   -1.3756    1.9970 H   0  0  0  0  0  0  0  0  0  0  0  0
    3.1001   -0.3816    3.4310 H   0  0  0  0  0  0  0  0  0  0  0  0
    2.1121   -1.9020    3.1084 H   0  0  0  0  0  0  0  0  0  0  0  0
    1.9083    0.7409    1.7501 H   0  0  0  0  0  0  0  0  0  0  0  0
    0.6136    1.6778    0.7183 H   0  0  0  0  0  0  0  0  0  0  0  0
   -0.9508    1.7787   -0.2490 H   0  0  0  0  0  0  0  0  0  0  0  0
   -1.6727   -1.8384    0.2971 H   0  0  0  0  0  0  0  0  0  0  0  0
   -4.1398   -0.7894   -2.1320 H   0  0  0  0  0  0  0  0  0  0  0  0
   -3.3219   -2.1289   -1.3082 H   0  0  0  0  0  0  0  0  0  0  0  0
   -4.5083   -1.0939   -0.3584 H   0  0  0  0  0  0  0  0  0  0  0  0
  1  2  1  0
  1 11  1  0
  1 12  1  0
  1 13  1  0
  2  3  1  0
  2 14  1  0
  3  4  2  0
  3  5  1  0
  5  6  2  3
  5  7  1  0
  6 15  1  0
  6 16  1  0
  7  8  1  0
  7 17  1  0
  8  9  1  0
  8 10  2  0
  9 18  1  0
  9 19  1  0
  9 20  1  0
M  END

> <RosettaParamsInstructions>
M  ROOT 7
M  POLY_N_BB 7
M  POLY_CA_BB 5
M  POLY_C_BB 3
M  POLY_O_BB 4
M  POLY_IGNORE 1 10 9 14 11 12 13 18 19 20
M  POLY_UPPER 2
M  POLY_LOWER 8
M  POLY_CHG 0
M  POLY_PROPERTIES PROTEIN POLYMER ALPHA_AA ALIPHATIC
M  END

$$$$
DHA_new
     RDKit          3D

 20 19  0  0  0  0  0  0  0  0999 V2000
    2.6990   -1.0503    2.5741 C   0  0  0  0  0  0  0  0  0  0  0  0
    1.6593   -0.2442    1.9012 N   0  0  0  0  0  0  0  0  0  0  0  0
    0.5720   -0.8594    1.2811 C   0  0  0  0  0  0  0  0  0  0  0  0
    0.4910   -2.1146    1.3042 O   0  0  0  0  0  0  0  0  0  0  0  0
   -0.4716   -0.1055    0.6089 C   0  0  0  0  0  0  0  0  0  0  0  0
   -0.4087    1.2057    0.5717 C   0  0  0  0  0  0  0  0  0  0  0  0
   -1.5449   -0.7911    0.0012 N   0  0  0  0  0  0  0  0  0  0  0  0
   -2.6298   -0.2322   -0.6848 C   0  0  0  0  0  0  0  0  0  0  0  0
   -3.6979   -1.1492   -1.2761 C   0  0  0  0  0  0  0  0  0  0  0  0
   -2.8553    0.9821   -0.8902 O   0  0  0  0  0  0  0  0  0  0  0  0
    2.9589   -0.5548    3.5273 H   0  0  0  0  0  0  0  0  0  0  0  0
    3.5764   -1.1241    1.9199 H   0  0  0  0  0  0  0  0  0  0  0  0
    2.2290   -2.0133    2.8190 H   0  0  0  0  0  0  0  0  0  0  0  0
    1.7983    0.7670    1.9271 H   0  0  0  0  0  0  0  0  0  0  0  0
    0.4301    1.7424    1.0466 H   0  0  0  0  0  0  0  0  0  0  0  0
   -1.1323    1.8524    0.0985 H   0  0  0  0  0  0  0  0  0  0  0  0
   -1.5103   -1.8593    0.0832 H   0  0  0  0  0  0  0  0  0  0  0  0
   -3.2257   -2.1418   -1.3991 H   0  0  0  0  0  0  0  0  0  0  0  0
   -4.4570   -1.2340   -0.4683 H   0  0  0  0  0  0  0  0  0  0  0  0
   -4.0869   -0.7278   -2.2047 H   0  0  0  0  0  0  0  0  0  0  0  0
  1  2  1  0
  1 11  1  0
  1 12  1  0
  1 13  1  0
  2  3  1  0
  2 14  1  0
  3  4  2  0
  3  5  1  0
  5  6  2  3
  5  7  1  0
  6 15  1  0
  6 16  1  0
  7  8  1  0
  7 17  1  0
  8  9  1  0
  8 10  2  0
  9 18  1  0
  9 19  1  0
  9 20  1  0
M  END

> <RosettaParamsInstructions>
M  ROOT 7
M  POLY_N_BB 7
M  POLY_CA_BB 5
M  POLY_C_BB 3
M  POLY_O_BB 4
M  POLY_IGNORE 1 10 9 14 11 12 13 18 19 20
M  POLY_UPPER 2
M  POLY_LOWER 8
M  POLY_CHG 0
M  POLY_PROPERTIES PROTEIN POLYMER ALPHA_AA ALIPHATIC
M  END

$$$$
DHA_new
     RDKit          3D

 20 19  0  0  0  0  0  0  0  0999 V2000
    2.6804   -1.0559    2.5892 C   0  0  0  0  0  0  0  0  0  0  0  0
    1.7024   -0.2431    1.8251 N   0  0  0  0  0  0  0  0  0  0  0  0
    0.5572   -0.8534    1.3188 C   0  0  0  0  0  0  0  0  0  0  0  0
    0.3937   -2.0978    1.5343 O   0  0  0  0  0  0  0  0  0  0  0  0
   -0.4576   -0.1089    0.5506 C   0  0  0  0  0  0  0  0  0  0  0  0
   -0.2659    1.1666    0.3436 C   0  0  0  0  0  0  0  0  0  0  0  0
   -1.5947   -0.8151    0.0727 N   0  0  0  0  0  0  0  0  0  0  0  0
   -2.6322   -0.2531   -0.6632 C   0  0  0  0  0  0  0  0  0  0  0  0
   -3.7911   -1.1333   -1.1103 C   0  0  0  0  0  0  0  0  0  0  0  0
   -2.7222    0.9366   -1.0107 O   0  0  0  0  0  0  0  0  0  0  0  0
    3.6179   -1.1521    2.0032 H   0  0  0  0  0  0  0  0  0  0  0  0
    2.2353   -2.0320    2.8646 H   0  0  0  0  0  0  0  0  0  0  0  0
    2.9227   -0.4565    3.4883 H   0  0  0  0  0  0  0  0  0  0  0  0
    1.9432    0.7612    1.7138 H   0  0  0  0  0  0  0  0  0  0  0  0
    0.6234    1.6460    0.7355 H   0  0  0  0  0  0  0  0  0  0  0  0
   -0.9213    1.8388   -0.2001 H   0  0  0  0  0  0  0  0  0  0  0  0
   -1.6569   -1.8499    0.2943 H   0  0  0  0  0  0  0  0  0  0  0  0
   -3.8585   -1.9678   -0.3922 H   0  0  0  0  0  0  0  0  0  0  0  0
   -3.6579   -1.4469   -2.1580 H   0  0  0  0  0  0  0  0  0  0  0  0
   -4.7244   -0.5358   -1.0587 H   0  0  0  0  0  0  0  0  0  0  0  0
  1  2  1  0
  1 11  1  0
  1 12  1  0
  1 13  1  0
  2  3  1  0
  2 14  1  0
  3  4  2  0
  3  5  1  0
  5  6  2  3
  5  7  1  0
  6 15  1  0
  6 16  1  0
  7  8  1  0
  7 17  1  0
  8  9  1  0
  8 10  2  0
  9 18  1  0
  9 19  1  0
  9 20  1  0
M  END

> <RosettaParamsInstructions>
M  ROOT 7
M  POLY_N_BB 7
M  POLY_CA_BB 5
M  POLY_C_BB 3
M  POLY_O_BB 4
M  POLY_IGNORE 1 10 9 14 11 12 13 18 19 20
M  POLY_UPPER 2
M  POLY_LOWER 8
M  POLY_CHG 0
M  POLY_PROPERTIES PROTEIN POLYMER ALPHA_AA ALIPHATIC
M  END

$$$$
DHA_new
     RDKit          3D

 20 19  0  0  0  0  0  0  0  0999 V2000
    2.7239   -1.0626    2.5400 C   0  0  0  0  0  0  0  0  0  0  0  0
    1.7067   -0.2048    1.8787 N   0  0  0  0  0  0  0  0  0  0  0  0
    0.5959   -0.8208    1.2918 C   0  0  0  0  0  0  0  0  0  0  0  0
    0.5130   -2.0974    1.3553 O   0  0  0  0  0  0  0  0  0  0  0  0
   -0.4702   -0.0801    0.6125 C   0  0  0  0  0  0  0  0  0  0  0  0
   -0.3802    1.2220    0.5510 C   0  0  0  0  0  0  0  0  0  0  0  0
   -1.5684   -0.7891    0.0410 N   0  0  0  0  0  0  0  0  0  0  0  0
   -2.6641   -0.2364   -0.6390 C   0  0  0  0  0  0  0  0  0  0  0  0
   -3.7263   -1.1788   -1.1695 C   0  0  0  0  0  0  0  0  0  0  0  0
   -2.8529    0.9769   -0.8536 O   0  0  0  0  0  0  0  0  0  0  0  0
    3.2894   -1.5080    1.6803 H   0  0  0  0  0  0  0  0  0  0  0  0
    3.3503   -0.4657    3.2008 H   0  0  0  0  0  0  0  0  0  0  0  0
    2.1736   -1.8865    3.0380 H   0  0  0  0  0  0  0  0  0  0  0  0
    1.8670    0.8272    1.8812 H   0  0  0  0  0  0  0  0  0  0  0  0
   -1.1030    1.8847    0.0765 H   0  0  0  0  0  0  0  0  0  0  0  0
    0.4594    1.7683    0.9876 H   0  0  0  0  0  0  0  0  0  0  0  0
   -1.5614   -1.8607    0.1383 H   0  0  0  0  0  0  0  0  0  0  0  0
   -3.7141   -2.1222   -0.5792 H   0  0  0  0  0  0  0  0  0  0  0  0
   -4.7025   -0.6707   -1.0610 H   0  0  0  0  0  0  0  0  0  0  0  0
   -3.5426   -1.3474   -2.2296 H   0  0  0  0  0  0  0  0  0  0  0  0
  1  2  1  0
  1 11  1  0
  1 12  1  0
  1 13  1  0
  2  3  1  0
  2 14  1  0
  3  4  2  0
  3  5  1  0
  5  6  2  3
  5  7  1  0
  6 15  1  0
  6 16  1  0
  7  8  1  0
  7 17  1  0
  8  9  1  0
  8 10  2  0
  9 18  1  0
  9 19  1  0
  9 20  1  0
M  END

> <RosettaParamsInstructions>
M  ROOT 7
M  POLY_N_BB 7
M  POLY_CA_BB 5
M  POLY_C_BB 3
M  POLY_O_BB 4
M  POLY_IGNORE 1 10 9 14 11 12 13 18 19 20
M  POLY_UPPER 2
M  POLY_LOWER 8
M  POLY_CHG 0
M  POLY_PROPERTIES PROTEIN POLYMER ALPHA_AA ALIPHATIC
M  END

$$$$
DHA_new
     RDKit          3D

 20 19  0  0  0  0  0  0  0  0999 V2000
    2.6976   -1.0455    2.5628 C   0  0  0  0  0  0  0  0  0  0  0  0
    1.6494   -0.2297    1.9064 N   0  0  0  0  0  0  0  0  0  0  0  0
    0.5711   -0.8512    1.2806 C   0  0  0  0  0  0  0  0  0  0  0  0
    0.5179   -2.1216    1.2916 O   0  0  0  0  0  0  0  0  0  0  0  0
   -0.4874   -0.0751    0.6194 C   0  0  0  0  0  0  0  0  0  0  0  0
   -0.4280    1.2213    0.6112 C   0  0  0  0  0  0  0  0  0  0  0  0
   -1.5513   -0.7882    0.0053 N   0  0  0  0  0  0  0  0  0  0  0  0
   -2.6435   -0.2324   -0.6686 C   0  0  0  0  0  0  0  0  0  0  0  0
   -3.6920   -1.1606   -1.2662 C   0  0  0  0  0  0  0  0  0  0  0  0
   -2.8515    0.9875   -0.8347 O   0  0  0  0  0  0  0  0  0  0  0  0
    3.0504   -0.5545    3.4810 H   0  0  0  0  0  0  0  0  0  0  0  0
    3.5533   -1.1772    1.8597 H   0  0  0  0  0  0  0  0  0  0  0  0
    2.3102   -2.0390    2.8075 H   0  0  0  0  0  0  0  0  0  0  0  0
    1.7945    0.7931    1.9589 H   0  0  0  0  0  0  0  0  0  0  0  0
    0.3986    1.7501    1.0892 H   0  0  0  0  0  0  0  0  0  0  0  0
   -1.1458    1.8707    0.1586 H   0  0  0  0  0  0  0  0  0  0  0  0
   -1.5267   -1.8640    0.0564 H   0  0  0  0  0  0  0  0  0  0  0  0
   -4.6740   -0.6632   -1.1978 H   0  0  0  0  0  0  0  0  0  0  0  0
   -3.4655   -1.3730   -2.3191 H   0  0  0  0  0  0  0  0  0  0  0  0
   -3.6837   -2.0996   -0.6614 H   0  0  0  0  0  0  0  0  0  0  0  0
  1  2  1  0
  1 11  1  0
  1 12  1  0
  1 13  1  0
  2  3  1  0
  2 14  1  0
  3  4  2  0
  3  5  1  0
  5  6  2  3
  5  7  1  0
  6 15  1  0
  6 16  1  0
  7  8  1  0
  7 17  1  0
  8  9  1  0
  8 10  2  0
  9 18  1  0
  9 19  1  0
  9 20  1  0
M  END

> <RosettaParamsInstructions>
M  ROOT 7
M  POLY_N_BB 7
M  POLY_CA_BB 5
M  POLY_C_BB 3
M  POLY_O_BB 4
M  POLY_IGNORE 1 10 9 14 11 12 13 18 19 20
M  POLY_UPPER 2
M  POLY_LOWER 8
M  POLY_CHG 0
M  POLY_PROPERTIES PROTEIN POLYMER ALPHA_AA ALIPHATIC
M  END

$$$$
DHA_new
     RDKit          3D

 20 19  0  0  0  0  0  0  0  0999 V2000
    2.6462   -1.0400    2.6781 C   0  0  0  0  0  0  0  0  0  0  0  0
    1.6581   -0.2305    1.9257 N   0  0  0  0  0  0  0  0  0  0  0  0
    0.5457   -0.8295    1.3345 C   0  0  0  0  0  0  0  0  0  0  0  0
    0.3894   -2.0716    1.4476 O   0  0  0  0  0  0  0  0  0  0  0  0
   -0.4511   -0.0851    0.5877 C   0  0  0  0  0  0  0  0  0  0  0  0
   -0.2988    1.2076    0.4635 C   0  0  0  0  0  0  0  0  0  0  0  0
   -1.5673   -0.7399    0.0036 N   0  0  0  0  0  0  0  0  0  0  0  0
   -2.6226   -0.2440   -0.7375 C   0  0  0  0  0  0  0  0  0  0  0  0
   -3.7037   -1.1863   -1.2511 C   0  0  0  0  0  0  0  0  0  0  0  0
   -2.7614    0.9588   -1.0277 O   0  0  0  0  0  0  0  0  0  0  0  0
    2.9214   -0.5040    3.5889 H   0  0  0  0  0  0  0  0  0  0  0  0
    3.5386   -1.1876    2.0414 H   0  0  0  0  0  0  0  0  0  0  0  0
    2.2078   -2.0261    2.8960 H   0  0  0  0  0  0  0  0  0  0  0  0
    1.8588    0.7858    1.8785 H   0  0  0  0  0  0  0  0  0  0  0  0
   -1.0240    1.7901   -0.0867 H   0  0  0  0  0  0  0  0  0  0  0  0
    0.5515    1.7391    0.9030 H   0  0  0  0  0  0  0  0  0  0  0  0
   -1.5901   -1.8106    0.1707 H   0  0  0  0  0  0  0  0  0  0  0  0
   -3.8596   -0.9999   -2.3171 H   0  0  0  0  0  0  0  0  0  0  0  0
   -3.4031   -2.2197   -1.0303 H   0  0  0  0  0  0  0  0  0  0  0  0
   -4.6424   -0.9590   -0.7279 H   0  0  0  0  0  0  0  0  0  0  0  0
  1  2  1  0
  1 11  1  0
  1 12  1  0
  1 13  1  0
  2  3  1  0
  2 14  1  0
  3  4  2  0
  3  5  1  0
  5  6  2  3
  5  7  1  0
  6 15  1  0
  6 16  1  0
  7  8  1  0
  7 17  1  0
  8  9  1  0
  8 10  2  0
  9 18  1  0
  9 19  1  0
  9 20  1  0
M  END

> <RosettaParamsInstructions>
M  ROOT 7
M  POLY_N_BB 7
M  POLY_CA_BB 5
M  POLY_C_BB 3
M  POLY_O_BB 4
M  POLY_IGNORE 1 10 9 14 11 12 13 18 19 20
M  POLY_UPPER 2
M  POLY_LOWER 8
M  POLY_CHG 0
M  POLY_PROPERTIES PROTEIN POLYMER ALPHA_AA ALIPHATIC
M  END

$$$$
DHA_new
     RDKit          3D

 20 19  0  0  0  0  0  0  0  0999 V2000
    2.6900   -1.0396    2.5551 C   0  0  0  0  0  0  0  0  0  0  0  0
    1.6985   -0.2334    1.8721 N   0  0  0  0  0  0  0  0  0  0  0  0
    0.5955   -0.8488    1.3072 C   0  0  0  0  0  0  0  0  0  0  0  0
    0.4355   -2.0796    1.3725 O   0  0  0  0  0  0  0  0  0  0  0  0
   -0.4512   -0.0691    0.5954 C   0  0  0  0  0  0  0  0  0  0  0  0
   -0.3460    1.2354    0.4886 C   0  0  0  0  0  0  0  0  0  0  0  0
   -1.5574   -0.7517    0.0373 N   0  0  0  0  0  0  0  0  0  0  0  0
   -2.6477   -0.2468   -0.6647 C   0  0  0  0  0  0  0  0  0  0  0  0
   -3.7427   -1.1455   -1.1884 C   0  0  0  0  0  0  0  0  0  0  0  0
   -2.8059    0.9526   -0.9118 O   0  0  0  0  0  0  0  0  0  0  0  0
    3.2595   -0.4724    3.2974 H   0  0  0  0  0  0  0  0  0  0  0  0
    2.1646   -1.8691    3.0696 H   0  0  0  0  0  0  0  0  0  0  0  0
    3.3936   -1.4944    1.8134 H   0  0  0  0  0  0  0  0  0  0  0  0
    1.8511    0.7761    1.8311 H   0  0  0  0  0  0  0  0  0  0  0  0
    0.5021    1.7831    0.9133 H   0  0  0  0  0  0  0  0  0  0  0  0
   -1.0869    1.8026   -0.0173 H   0  0  0  0  0  0  0  0  0  0  0  0
   -1.5675   -1.8172    0.1688 H   0  0  0  0  0  0  0  0  0  0  0  0
   -4.6953   -0.6625   -0.8978 H   0  0  0  0  0  0  0  0  0  0  0  0
   -3.6358   -1.3467   -2.2538 H   0  0  0  0  0  0  0  0  0  0  0  0
   -3.6605   -2.1253   -0.6472 H   0  0  0  0  0  0  0  0  0  0  0  0
  1  2  1  0
  1 11  1  0
  1 12  1  0
  1 13  1  0
  2  3  1  0
  2 14  1  0
  3  4  2  0
  3  5  1  0
  5  6  2  3
  5  7  1  0
  6 15  1  0
  6 16  1  0
  7  8  1  0
  7 17  1  0
  8  9  1  0
  8 10  2  0
  9 18  1  0
  9 19  1  0
  9 20  1  0
M  END

> <RosettaParamsInstructions>
M  ROOT 7
M  POLY_N_BB 7
M  POLY_CA_BB 5
M  POLY_C_BB 3
M  POLY_O_BB 4
M  POLY_IGNORE 1 10 9 14 11 12 13 18 19 20
M  POLY_UPPER 2
M  POLY_LOWER 8
M  POLY_CHG 0
M  POLY_PROPERTIES PROTEIN POLYMER ALPHA_AA ALIPHATIC
M  END

$$$$
DHA_new
     RDKit          3D

 20 19  0  0  0  0  0  0  0  0999 V2000
    2.6906   -1.0225    2.5799 C   0  0  0  0  0  0  0  0  0  0  0  0
    1.6864   -0.2129    1.8602 N   0  0  0  0  0  0  0  0  0  0  0  0
    0.5799   -0.8616    1.3167 C   0  0  0  0  0  0  0  0  0  0  0  0
    0.4558   -2.1238    1.4485 O   0  0  0  0  0  0  0  0  0  0  0  0
   -0.4582   -0.1145    0.5872 C   0  0  0  0  0  0  0  0  0  0  0  0
   -0.3274    1.1717    0.4555 C   0  0  0  0  0  0  0  0  0  0  0  0
   -1.5660   -0.7910    0.0474 N   0  0  0  0  0  0  0  0  0  0  0  0
   -2.6344   -0.2486   -0.6667 C   0  0  0  0  0  0  0  0  0  0  0  0
   -3.7516   -1.1357   -1.1778 C   0  0  0  0  0  0  0  0  0  0  0  0
   -2.8064    0.9636   -0.9638 O   0  0  0  0  0  0  0  0  0  0  0  0
    3.6508   -0.9030    2.0605 H   0  0  0  0  0  0  0  0  0  0  0  0
    2.7500   -0.7036    3.6277 H   0  0  0  0  0  0  0  0  0  0  0  0
    2.4008   -2.0938    2.5856 H   0  0  0  0  0  0  0  0  0  0  0  0
    1.9038    0.7904    1.8251 H   0  0  0  0  0  0  0  0  0  0  0  0
    0.5320    1.6837    0.8764 H   0  0  0  0  0  0  0  0  0  0  0  0
   -1.0172    1.8449   -0.0578 H   0  0  0  0  0  0  0  0  0  0  0  0
   -1.5922   -1.8448    0.2027 H   0  0  0  0  0  0  0  0  0  0  0  0
   -3.7756   -2.0831   -0.6140 H   0  0  0  0  0  0  0  0  0  0  0  0
   -3.6089   -1.3434   -2.2519 H   0  0  0  0  0  0  0  0  0  0  0  0
   -4.7186   -0.6242   -1.0005 H   0  0  0  0  0  0  0  0  0  0  0  0
  1  2  1  0
  1 11  1  0
  1 12  1  0
  1 13  1  0
  2  3  1  0
  2 14  1  0
  3  4  2  0
  3  5  1  0
  5  6  2  3
  5  7  1  0
  6 15  1  0
  6 16  1  0
  7  8  1  0
  7 17  1  0
  8  9  1  0
  8 10  2  0
  9 18  1  0
  9 19  1  0
  9 20  1  0
M  END

> <RosettaParamsInstructions>
M  ROOT 7
M  POLY_N_BB 7
M  POLY_CA_BB 5
M  POLY_C_BB 3
M  POLY_O_BB 4
M  POLY_IGNORE 1 10 9 14 11 12 13 18 19 20
M  POLY_UPPER 2
M  POLY_LOWER 8
M  POLY_CHG 0
M  POLY_PROPERTIES PROTEIN POLYMER ALPHA_AA ALIPHATIC
M  END

$$$$
DHA_new
     RDKit          3D

 20 19  0  0  0  0  0  0  0  0999 V2000
    2.6892   -1.0536    2.5786 C   0  0  0  0  0  0  0  0  0  0  0  0
    1.7031   -0.2337    1.8620 N   0  0  0  0  0  0  0  0  0  0  0  0
    0.5851   -0.8345    1.3161 C   0  0  0  0  0  0  0  0  0  0  0  0
    0.4385   -2.1017    1.4514 O   0  0  0  0  0  0  0  0  0  0  0  0
   -0.4503   -0.0786    0.5820 C   0  0  0  0  0  0  0  0  0  0  0  0
   -0.3301    1.2220    0.4255 C   0  0  0  0  0  0  0  0  0  0  0  0
   -1.5600   -0.7841    0.0592 N   0  0  0  0  0  0  0  0  0  0  0  0
   -2.6308   -0.2667   -0.6538 C   0  0  0  0  0  0  0  0  0  0  0  0
   -3.7541   -1.1543   -1.1528 C   0  0  0  0  0  0  0  0  0  0  0  0
   -2.7928    0.9380   -0.9578 O   0  0  0  0  0  0  0  0  0  0  0  0
    2.6340   -2.0750    2.1566 H   0  0  0  0  0  0  0  0  0  0  0  0
    3.7063   -0.6100    2.4841 H   0  0  0  0  0  0  0  0  0  0  0  0
    2.3848   -1.0650    3.6514 H   0  0  0  0  0  0  0  0  0  0  0  0
    1.8998    0.7741    1.8009 H   0  0  0  0  0  0  0  0  0  0  0  0
    0.5639    1.6967    0.8630 H   0  0  0  0  0  0  0  0  0  0  0  0
   -1.0450    1.8360   -0.0974 H   0  0  0  0  0  0  0  0  0  0  0  0
   -1.5798   -1.8410    0.2317 H   0  0  0  0  0  0  0  0  0  0  0  0
   -4.6814   -0.8709   -0.6337 H   0  0  0  0  0  0  0  0  0  0  0  0
   -3.5318   -2.2092   -0.9890 H   0  0  0  0  0  0  0  0  0  0  0  0
   -3.8552   -0.9407   -2.2372 H   0  0  0  0  0  0  0  0  0  0  0  0
  1  2  1  0
  1 11  1  0
  1 12  1  0
  1 13  1  0
  2  3  1  0
  2 14  1  0
  3  4  2  0
  3  5  1  0
  5  6  2  3
  5  7  1  0
  6 15  1  0
  6 16  1  0
  7  8  1  0
  7 17  1  0
  8  9  1  0
  8 10  2  0
  9 18  1  0
  9 19  1  0
  9 20  1  0
M  END

> <RosettaParamsInstructions>
M  ROOT 7
M  POLY_N_BB 7
M  POLY_CA_BB 5
M  POLY_C_BB 3
M  POLY_O_BB 4
M  POLY_IGNORE 1 10 9 14 11 12 13 18 19 20
M  POLY_UPPER 2
M  POLY_LOWER 8
M  POLY_CHG 0
M  POLY_PROPERTIES PROTEIN POLYMER ALPHA_AA ALIPHATIC
M  END

$$$$
DHA_new
     RDKit          3D

 20 19  0  0  0  0  0  0  0  0999 V2000
    2.6748   -1.0597    2.5809 C   0  0  0  0  0  0  0  0  0  0  0  0
    1.6975   -0.2556    1.8258 N   0  0  0  0  0  0  0  0  0  0  0  0
    0.5530   -0.8336    1.3151 C   0  0  0  0  0  0  0  0  0  0  0  0
    0.3491   -2.0804    1.5053 O   0  0  0  0  0  0  0  0  0  0  0  0
   -0.4560   -0.0783    0.5539 C   0  0  0  0  0  0  0  0  0  0  0  0
   -0.2527    1.2098    0.3533 C   0  0  0  0  0  0  0  0  0  0  0  0
   -1.6040   -0.7595    0.0667 N   0  0  0  0  0  0  0  0  0  0  0  0
   -2.6539   -0.2163   -0.6657 C   0  0  0  0  0  0  0  0  0  0  0  0
   -3.7686   -1.1596   -1.0696 C   0  0  0  0  0  0  0  0  0  0  0  0
   -2.7593    0.9830   -1.0206 O   0  0  0  0  0  0  0  0  0  0  0  0
    3.5538   -1.1741    1.9477 H   0  0  0  0  0  0  0  0  0  0  0  0
    2.2337   -2.0404    2.7867 H   0  0  0  0  0  0  0  0  0  0  0  0
    2.8889   -0.5648    3.5600 H   0  0  0  0  0  0  0  0  0  0  0  0
    1.9227    0.7459    1.7081 H   0  0  0  0  0  0  0  0  0  0  0  0
    0.6348    1.7371    0.7299 H   0  0  0  0  0  0  0  0  0  0  0  0
   -0.9452    1.8326   -0.1948 H   0  0  0  0  0  0  0  0  0  0  0  0
   -1.6543   -1.8017    0.2942 H   0  0  0  0  0  0  0  0  0  0  0  0
   -3.8849   -1.9081   -0.2601 H   0  0  0  0  0  0  0  0  0  0  0  0
   -3.4587   -1.6505   -2.0055 H   0  0  0  0  0  0  0  0  0  0  0  0
   -4.6773   -0.5780   -1.2704 H   0  0  0  0  0  0  0  0  0  0  0  0
  1  2  1  0
  1 11  1  0
  1 12  1  0
  1 13  1  0
  2  3  1  0
  2 14  1  0
  3  4  2  0
  3  5  1  0
  5  6  2  3
  5  7  1  0
  6 15  1  0
  6 16  1  0
  7  8  1  0
  7 17  1  0
  8  9  1  0
  8 10  2  0
  9 18  1  0
  9 19  1  0
  9 20  1  0
M  END

> <RosettaParamsInstructions>
M  ROOT 7
M  POLY_N_BB 7
M  POLY_CA_BB 5
M  POLY_C_BB 3
M  POLY_O_BB 4
M  POLY_IGNORE 1 10 9 14 11 12 13 18 19 20
M  POLY_UPPER 2
M  POLY_LOWER 8
M  POLY_CHG 0
M  POLY_PROPERTIES PROTEIN POLYMER ALPHA_AA ALIPHATIC
M  END

$$$$
DHA_new
     RDKit          3D

 20 19  0  0  0  0  0  0  0  0999 V2000
    2.6889   -1.0483    2.6103 C   0  0  0  0  0  0  0  0  0  0  0  0
    1.6925   -0.2404    1.8806 N   0  0  0  0  0  0  0  0  0  0  0  0
    0.5671   -0.8216    1.3200 C   0  0  0  0  0  0  0  0  0  0  0  0
    0.4012   -2.0848    1.4453 O   0  0  0  0  0  0  0  0  0  0  0  0
   -0.4629   -0.0659    0.5797 C   0  0  0  0  0  0  0  0  0  0  0  0
   -0.3254    1.2338    0.4313 C   0  0  0  0  0  0  0  0  0  0  0  0
   -1.5694   -0.7733    0.0526 N   0  0  0  0  0  0  0  0  0  0  0  0
   -2.6340   -0.2428   -0.6683 C   0  0  0  0  0  0  0  0  0  0  0  0
   -3.7514   -1.1606   -1.1647 C   0  0  0  0  0  0  0  0  0  0  0  0
   -2.8367    0.9511   -0.9985 O   0  0  0  0  0  0  0  0  0  0  0  0
    2.3226   -1.2340    3.6407 H   0  0  0  0  0  0  0  0  0  0  0  0
    2.8336   -2.0070    2.0440 H   0  0  0  0  0  0  0  0  0  0  0  0
    3.6753   -0.5520    2.6162 H   0  0  0  0  0  0  0  0  0  0  0  0
    1.9017    0.7659    1.8262 H   0  0  0  0  0  0  0  0  0  0  0  0
    0.5525    1.7082    0.8649 H   0  0  0  0  0  0  0  0  0  0  0  0
   -1.0550    1.8127   -0.1007 H   0  0  0  0  0  0  0  0  0  0  0  0
   -1.5853   -1.8225    0.2285 H   0  0  0  0  0  0  0  0  0  0  0  0
   -4.6526   -0.9912   -0.5603 H   0  0  0  0  0  0  0  0  0  0  0  0
   -3.3895   -2.1897   -1.0896 H   0  0  0  0  0  0  0  0  0  0  0  0
   -3.9796   -0.8897   -2.2173 H   0  0  0  0  0  0  0  0  0  0  0  0
  1  2  1  0
  1 11  1  0
  1 12  1  0
  1 13  1  0
  2  3  1  0
  2 14  1  0
  3  4  2  0
  3  5  1  0
  5  6  2  3
  5  7  1  0
  6 15  1  0
  6 16  1  0
  7  8  1  0
  7 17  1  0
  8  9  1  0
  8 10  2  0
  9 18  1  0
  9 19  1  0
  9 20  1  0
M  END

> <RosettaParamsInstructions>
M  ROOT 7
M  POLY_N_BB 7
M  POLY_CA_BB 5
M  POLY_C_BB 3
M  POLY_O_BB 4
M  POLY_IGNORE 1 10 9 14 11 12 13 18 19 20
M  POLY_UPPER 2
M  POLY_LOWER 8
M  POLY_CHG 0
M  POLY_PROPERTIES PROTEIN POLYMER ALPHA_AA ALIPHATIC
M  END

$$$$
DHA_new
     RDKit          3D

 20 19  0  0  0  0  0  0  0  0999 V2000
    2.7059   -1.0794    2.5000 C   0  0  0  0  0  0  0  0  0  0  0  0
    1.6966   -0.2551    1.8314 N   0  0  0  0  0  0  0  0  0  0  0  0
    0.5724   -0.8425    1.2744 C   0  0  0  0  0  0  0  0  0  0  0  0
    0.4396   -2.1104    1.3581 O   0  0  0  0  0  0  0  0  0  0  0  0
   -0.4609   -0.0796    0.6000 C   0  0  0  0  0  0  0  0  0  0  0  0
   -0.3399    1.2210    0.5056 C   0  0  0  0  0  0  0  0  0  0  0  0
   -1.5766   -0.7779    0.0615 N   0  0  0  0  0  0  0  0  0  0  0  0
   -2.6629   -0.2280   -0.6163 C   0  0  0  0  0  0  0  0  0  0  0  0
   -3.7514   -1.1417   -1.1127 C   0  0  0  0  0  0  0  0  0  0  0  0
   -2.8597    0.9859   -0.8781 O   0  0  0  0  0  0  0  0  0  0  0  0
    2.3678   -2.1134    2.5775 H   0  0  0  0  0  0  0  0  0  0  0  0
    2.8373   -0.6295    3.5171 H   0  0  0  0  0  0  0  0  0  0  0  0
    3.6856   -1.0220    1.9552 H   0  0  0  0  0  0  0  0  0  0  0  0
    1.8900    0.7485    1.8146 H   0  0  0  0  0  0  0  0  0  0  0  0
   -1.0622    1.8839    0.0180 H   0  0  0  0  0  0  0  0  0  0  0  0
    0.5305    1.7454    0.9282 H   0  0  0  0  0  0  0  0  0  0  0  0
   -1.5987   -1.8401    0.1815 H   0  0  0  0  0  0  0  0  0  0  0  0
   -4.6227   -1.1483   -0.4595 H   0  0  0  0  0  0  0  0  0  0  0  0
   -4.0485   -0.7964   -2.1387 H   0  0  0  0  0  0  0  0  0  0  0  0
   -3.3486   -2.1724   -1.1768 H   0  0  0  0  0  0  0  0  0  0  0  0
  1  2  1  0
  1 11  1  0
  1 12  1  0
  1 13  1  0
  2  3  1  0
  2 14  1  0
  3  4  2  0
  3  5  1  0
  5  6  2  3
  5  7  1  0
  6 15  1  0
  6 16  1  0
  7  8  1  0
  7 17  1  0
  8  9  1  0
  8 10  2  0
  9 18  1  0
  9 19  1  0
  9 20  1  0
M  END

> <RosettaParamsInstructions>
M  ROOT 7
M  POLY_N_BB 7
M  POLY_CA_BB 5
M  POLY_C_BB 3
M  POLY_O_BB 4
M  POLY_IGNORE 1 10 9 14 11 12 13 18 19 20
M  POLY_UPPER 2
M  POLY_LOWER 8
M  POLY_CHG 0
M  POLY_PROPERTIES PROTEIN POLYMER ALPHA_AA ALIPHATIC
M  END

$$$$
DHA_new
     RDKit          3D

 20 19  0  0  0  0  0  0  0  0999 V2000
    2.6229   -1.0192    2.6672 C   0  0  0  0  0  0  0  0  0  0  0  0
    1.6755   -0.2437    1.8767 N   0  0  0  0  0  0  0  0  0  0  0  0
    0.5330   -0.8333    1.3507 C   0  0  0  0  0  0  0  0  0  0  0  0
    0.3412   -2.0652    1.5799 O   0  0  0  0  0  0  0  0  0  0  0  0
   -0.4291   -0.0822    0.5581 C   0  0  0  0  0  0  0  0  0  0  0  0
   -0.2083    1.1945    0.3338 C   0  0  0  0  0  0  0  0  0  0  0  0
   -1.5649   -0.7836    0.0674 N   0  0  0  0  0  0  0  0  0  0  0  0
   -2.6144   -0.2723   -0.7108 C   0  0  0  0  0  0  0  0  0  0  0  0
   -3.7578   -1.1617   -1.1534 C   0  0  0  0  0  0  0  0  0  0  0  0
   -2.7211    0.9147   -1.1080 O   0  0  0  0  0  0  0  0  0  0  0  0
    2.9599   -0.4249    3.5582 H   0  0  0  0  0  0  0  0  0  0  0  0
    2.1852   -1.9791    3.0190 H   0  0  0  0  0  0  0  0  0  0  0  0
    3.4719   -1.2751    2.0175 H   0  0  0  0  0  0  0  0  0  0  0  0
    1.8999    0.7463    1.7350 H   0  0  0  0  0  0  0  0  0  0  0  0
   -0.8862    1.8110   -0.2491 H   0  0  0  0  0  0  0  0  0  0  0  0
    0.6512    1.7496    0.6983 H   0  0  0  0  0  0  0  0  0  0  0  0
   -1.6593   -1.8275    0.3029 H   0  0  0  0  0  0  0  0  0  0  0  0
   -3.6686   -1.3998   -2.2205 H   0  0  0  0  0  0  0  0  0  0  0  0
   -3.7395   -2.1096   -0.5851 H   0  0  0  0  0  0  0  0  0  0  0  0
   -4.6979   -0.5911   -0.9969 H   0  0  0  0  0  0  0  0  0  0  0  0
  1  2  1  0
  1 11  1  0
  1 12  1  0
  1 13  1  0
  2  3  1  0
  2 14  1  0
  3  4  2  0
  3  5  1  0
  5  6  2  3
  5  7  1  0
  6 15  1  0
  6 16  1  0
  7  8  1  0
  7 17  1  0
  8  9  1  0
  8 10  2  0
  9 18  1  0
  9 19  1  0
  9 20  1  0
M  END

> <RosettaParamsInstructions>
M  ROOT 7
M  POLY_N_BB 7
M  POLY_CA_BB 5
M  POLY_C_BB 3
M  POLY_O_BB 4
M  POLY_IGNORE 1 10 9 14 11 12 13 18 19 20
M  POLY_UPPER 2
M  POLY_LOWER 8
M  POLY_CHG 0
M  POLY_PROPERTIES PROTEIN POLYMER ALPHA_AA ALIPHATIC
M  END

$$$$
DHA_new
     RDKit          3D

 20 19  0  0  0  0  0  0  0  0999 V2000
    2.7101   -1.0714    2.5126 C   0  0  0  0  0  0  0  0  0  0  0  0
    1.6649   -0.2588    1.8591 N   0  0  0  0  0  0  0  0  0  0  0  0
    0.5517   -0.8464    1.2624 C   0  0  0  0  0  0  0  0  0  0  0  0
    0.4471   -2.0961    1.2881 O   0  0  0  0  0  0  0  0  0  0  0  0
   -0.4849   -0.0718    0.6164 C   0  0  0  0  0  0  0  0  0  0  0  0
   -0.3889    1.2454    0.5812 C   0  0  0  0  0  0  0  0  0  0  0  0
   -1.5786   -0.7727    0.0386 N   0  0  0  0  0  0  0  0  0  0  0  0
   -2.6837   -0.2190   -0.6315 C   0  0  0  0  0  0  0  0  0  0  0  0
   -3.7219   -1.1877   -1.1591 C   0  0  0  0  0  0  0  0  0  0  0  0
   -2.8950    1.0029   -0.8360 O   0  0  0  0  0  0  0  0  0  0  0  0
    3.6810   -0.6886    2.1341 H   0  0  0  0  0  0  0  0  0  0  0  0
    2.6606   -0.9541    3.6012 H   0  0  0  0  0  0  0  0  0  0  0  0
    2.6494   -2.1293    2.1755 H   0  0  0  0  0  0  0  0  0  0  0  0
    1.8472    0.7557    1.8939 H   0  0  0  0  0  0  0  0  0  0  0  0
   -1.1078    1.9035    0.1249 H   0  0  0  0  0  0  0  0  0  0  0  0
    0.4518    1.7623    1.0268 H   0  0  0  0  0  0  0  0  0  0  0  0
   -1.5554   -1.8255    0.1239 H   0  0  0  0  0  0  0  0  0  0  0  0
   -4.5326   -1.2935   -0.4095 H   0  0  0  0  0  0  0  0  0  0  0  0
   -4.1051   -0.7564   -2.0891 H   0  0  0  0  0  0  0  0  0  0  0  0
   -3.2164   -2.1506   -1.3725 H   0  0  0  0  0  0  0  0  0  0  0  0
  1  2  1  0
  1 11  1  0
  1 12  1  0
  1 13  1  0
  2  3  1  0
  2 14  1  0
  3  4  2  0
  3  5  1  0
  5  6  2  3
  5  7  1  0
  6 15  1  0
  6 16  1  0
  7  8  1  0
  7 17  1  0
  8  9  1  0
  8 10  2  0
  9 18  1  0
  9 19  1  0
  9 20  1  0
M  END

> <RosettaParamsInstructions>
M  ROOT 7
M  POLY_N_BB 7
M  POLY_CA_BB 5
M  POLY_C_BB 3
M  POLY_O_BB 4
M  POLY_IGNORE 1 10 9 14 11 12 13 18 19 20
M  POLY_UPPER 2
M  POLY_LOWER 8
M  POLY_CHG 0
M  POLY_PROPERTIES PROTEIN POLYMER ALPHA_AA ALIPHATIC
M  END

$$$$
DHA_new
     RDKit          3D

 20 19  0  0  0  0  0  0  0  0999 V2000
    2.7178   -1.0945    2.5420 C   0  0  0  0  0  0  0  0  0  0  0  0
    1.7140   -0.2643    1.8657 N   0  0  0  0  0  0  0  0  0  0  0  0
    0.5695   -0.8256    1.2802 C   0  0  0  0  0  0  0  0  0  0  0  0
    0.4144   -2.0665    1.3442 O   0  0  0  0  0  0  0  0  0  0  0  0
   -0.4786   -0.0514    0.5855 C   0  0  0  0  0  0  0  0  0  0  0  0
   -0.3748    1.2463    0.4851 C   0  0  0  0  0  0  0  0  0  0  0  0
   -1.5819   -0.7477    0.0401 N   0  0  0  0  0  0  0  0  0  0  0  0
   -2.6573   -0.2082   -0.6413 C   0  0  0  0  0  0  0  0  0  0  0  0
   -3.7385   -1.1391   -1.1451 C   0  0  0  0  0  0  0  0  0  0  0  0
   -2.8482    0.9879   -0.8977 O   0  0  0  0  0  0  0  0  0  0  0  0
    2.3446   -2.1317    2.6072 H   0  0  0  0  0  0  0  0  0  0  0  0
    2.9541   -0.6482    3.5226 H   0  0  0  0  0  0  0  0  0  0  0  0
    3.6395   -1.0654    1.8995 H   0  0  0  0  0  0  0  0  0  0  0  0
    1.8781    0.7458    1.8353 H   0  0  0  0  0  0  0  0  0  0  0  0
    0.4977    1.7452    0.9228 H   0  0  0  0  0  0  0  0  0  0  0  0
   -1.1084    1.8382   -0.0073 H   0  0  0  0  0  0  0  0  0  0  0  0
   -1.5926   -1.8113    0.1649 H   0  0  0  0  0  0  0  0  0  0  0  0
   -3.7976   -1.9820   -0.3981 H   0  0  0  0  0  0  0  0  0  0  0  0
   -4.7090   -0.6448   -1.1199 H   0  0  0  0  0  0  0  0  0  0  0  0
   -3.4494   -1.5348   -2.1446 H   0  0  0  0  0  0  0  0  0  0  0  0
  1  2  1  0
  1 11  1  0
  1 12  1  0
  1 13  1  0
  2  3  1  0
  2 14  1  0
  3  4  2  0
  3  5  1  0
  5  6  2  3
  5  7  1  0
  6 15  1  0
  6 16  1  0
  7  8  1  0
  7 17  1  0
  8  9  1  0
  8 10  2  0
  9 18  1  0
  9 19  1  0
  9 20  1  0
M  END

> <RosettaParamsInstructions>
M  ROOT 7
M  POLY_N_BB 7
M  POLY_CA_BB 5
M  POLY_C_BB 3
M  POLY_O_BB 4
M  POLY_IGNORE 1 10 9 14 11 12 13 18 19 20
M  POLY_UPPER 2
M  POLY_LOWER 8
M  POLY_CHG 0
M  POLY_PROPERTIES PROTEIN POLYMER ALPHA_AA ALIPHATIC
M  END

$$$$
DHA_new
     RDKit          3D

 20 19  0  0  0  0  0  0  0  0999 V2000
    2.6920   -1.0391    2.5374 C   0  0  0  0  0  0  0  0  0  0  0  0
    1.7028   -0.2500    1.8321 N   0  0  0  0  0  0  0  0  0  0  0  0
    0.5677   -0.8423    1.2887 C   0  0  0  0  0  0  0  0  0  0  0  0
    0.4352   -2.0946    1.4353 O   0  0  0  0  0  0  0  0  0  0  0  0
   -0.4614   -0.0742    0.5645 C   0  0  0  0  0  0  0  0  0  0  0  0
   -0.3008    1.2176    0.4269 C   0  0  0  0  0  0  0  0  0  0  0  0
   -1.5780   -0.7910    0.0537 N   0  0  0  0  0  0  0  0  0  0  0  0
   -2.6526   -0.2535   -0.6555 C   0  0  0  0  0  0  0  0  0  0  0  0
   -3.7733   -1.1507   -1.1366 C   0  0  0  0  0  0  0  0  0  0  0  0
   -2.7863    0.9412   -0.9439 O   0  0  0  0  0  0  0  0  0  0  0  0
    2.3714   -2.1120    2.6324 H   0  0  0  0  0  0  0  0  0  0  0  0
    2.7922   -0.6843    3.5940 H   0  0  0  0  0  0  0  0  0  0  0  0
    3.6894   -1.0006    2.0632 H   0  0  0  0  0  0  0  0  0  0  0  0
    1.8874    0.7541    1.7594 H   0  0  0  0  0  0  0  0  0  0  0  0
    0.5632    1.7575    0.8248 H   0  0  0  0  0  0  0  0  0  0  0  0
   -1.0142    1.8123   -0.0862 H   0  0  0  0  0  0  0  0  0  0  0  0
   -1.5911   -1.8455    0.2334 H   0  0  0  0  0  0  0  0  0  0  0  0
   -4.7238   -0.6193   -0.8596 H   0  0  0  0  0  0  0  0  0  0  0  0
   -3.7266   -1.2829   -2.2364 H   0  0  0  0  0  0  0  0  0  0  0  0
   -3.6997   -2.0949   -0.5868 H   0  0  0  0  0  0  0  0  0  0  0  0
  1  2  1  0
  1 11  1  0
  1 12  1  0
  1 13  1  0
  2  3  1  0
  2 14  1  0
  3  4  2  0
  3  5  1  0
  5  6  2  3
  5  7  1  0
  6 15  1  0
  6 16  1  0
  7  8  1  0
  7 17  1  0
  8  9  1  0
  8 10  2  0
  9 18  1  0
  9 19  1  0
  9 20  1  0
M  END

> <RosettaParamsInstructions>
M  ROOT 7
M  POLY_N_BB 7
M  POLY_CA_BB 5
M  POLY_C_BB 3
M  POLY_O_BB 4
M  POLY_IGNORE 1 10 9 14 11 12 13 18 19 20
M  POLY_UPPER 2
M  POLY_LOWER 8
M  POLY_CHG 0
M  POLY_PROPERTIES PROTEIN POLYMER ALPHA_AA ALIPHATIC
M  END

$$$$
DHA_new
     RDKit          3D

 20 19  0  0  0  0  0  0  0  0999 V2000
    2.6416   -1.0462    2.6752 C   0  0  0  0  0  0  0  0  0  0  0  0
    1.6936   -0.2325    1.8859 N   0  0  0  0  0  0  0  0  0  0  0  0
    0.5359   -0.8153    1.3421 C   0  0  0  0  0  0  0  0  0  0  0  0
    0.3320   -2.0415    1.5457 O   0  0  0  0  0  0  0  0  0  0  0  0
   -0.4528   -0.0895    0.5516 C   0  0  0  0  0  0  0  0  0  0  0  0
   -0.2467    1.1931    0.3343 C   0  0  0  0  0  0  0  0  0  0  0  0
   -1.5887   -0.7683    0.0466 N   0  0  0  0  0  0  0  0  0  0  0  0
   -2.6350   -0.2512   -0.7231 C   0  0  0  0  0  0  0  0  0  0  0  0
   -3.7441   -1.1666   -1.1490 C   0  0  0  0  0  0  0  0  0  0  0  0
   -2.7298    0.9319   -1.0956 O   0  0  0  0  0  0  0  0  0  0  0  0
    2.8931   -0.4876    3.5791 H   0  0  0  0  0  0  0  0  0  0  0  0
    2.1477   -2.0007    2.9100 H   0  0  0  0  0  0  0  0  0  0  0  0
    3.5332   -1.2255    2.0213 H   0  0  0  0  0  0  0  0  0  0  0  0
    1.9704    0.7557    1.7896 H   0  0  0  0  0  0  0  0  0  0  0  0
   -0.8990    1.8378   -0.2314 H   0  0  0  0  0  0  0  0  0  0  0  0
    0.6321    1.6974    0.7305 H   0  0  0  0  0  0  0  0  0  0  0  0
   -1.6430   -1.7978    0.2881 H   0  0  0  0  0  0  0  0  0  0  0  0
   -3.4274   -1.6159   -2.1117 H   0  0  0  0  0  0  0  0  0  0  0  0
   -3.9365   -1.9346   -0.3749 H   0  0  0  0  0  0  0  0  0  0  0  0
   -4.6832   -0.5948   -1.2733 H   0  0  0  0  0  0  0  0  0  0  0  0
  1  2  1  0
  1 11  1  0
  1 12  1  0
  1 13  1  0
  2  3  1  0
  2 14  1  0
  3  4  2  0
  3  5  1  0
  5  6  2  3
  5  7  1  0
  6 15  1  0
  6 16  1  0
  7  8  1  0
  7 17  1  0
  8  9  1  0
  8 10  2  0
  9 18  1  0
  9 19  1  0
  9 20  1  0
M  END

> <RosettaParamsInstructions>
M  ROOT 7
M  POLY_N_BB 7
M  POLY_CA_BB 5
M  POLY_C_BB 3
M  POLY_O_BB 4
M  POLY_IGNORE 1 10 9 14 11 12 13 18 19 20
M  POLY_UPPER 2
M  POLY_LOWER 8
M  POLY_CHG 0
M  POLY_PROPERTIES PROTEIN POLYMER ALPHA_AA ALIPHATIC
M  END

$$$$
DHA_new
     RDKit          3D

 20 19  0  0  0  0  0  0  0  0999 V2000
    2.6496   -1.0802    2.5693 C   0  0  0  0  0  0  0  0  0  0  0  0
    1.6952   -0.2514    1.8419 N   0  0  0  0  0  0  0  0  0  0  0  0
    0.5551   -0.8394    1.3053 C   0  0  0  0  0  0  0  0  0  0  0  0
    0.3709   -2.0848    1.4608 O   0  0  0  0  0  0  0  0  0  0  0  0
   -0.4317   -0.0717    0.5721 C   0  0  0  0  0  0  0  0  0  0  0  0
   -0.2608    1.2198    0.3991 C   0  0  0  0  0  0  0  0  0  0  0  0
   -1.5691   -0.7505    0.0561 N   0  0  0  0  0  0  0  0  0  0  0  0
   -2.6365   -0.2130   -0.6754 C   0  0  0  0  0  0  0  0  0  0  0  0
   -3.7317   -1.1586   -1.1107 C   0  0  0  0  0  0  0  0  0  0  0  0
   -2.7893    0.9865   -1.0164 O   0  0  0  0  0  0  0  0  0  0  0  0
    2.3083   -2.1138    2.6770 H   0  0  0  0  0  0  0  0  0  0  0  0
    2.7538   -0.6361    3.5780 H   0  0  0  0  0  0  0  0  0  0  0  0
    3.6481   -1.0876    2.0860 H   0  0  0  0  0  0  0  0  0  0  0  0
    1.8814    0.7556    1.7378 H   0  0  0  0  0  0  0  0  0  0  0  0
    0.5899    1.7777    0.7745 H   0  0  0  0  0  0  0  0  0  0  0  0
   -0.9636    1.8678   -0.1444 H   0  0  0  0  0  0  0  0  0  0  0  0
   -1.6178   -1.7906    0.2469 H   0  0  0  0  0  0  0  0  0  0  0  0
   -4.7108   -0.6408   -1.0529 H   0  0  0  0  0  0  0  0  0  0  0  0
   -3.7872   -2.0276   -0.4220 H   0  0  0  0  0  0  0  0  0  0  0  0
   -3.5603   -1.5134   -2.1424 H   0  0  0  0  0  0  0  0  0  0  0  0
  1  2  1  0
  1 11  1  0
  1 12  1  0
  1 13  1  0
  2  3  1  0
  2 14  1  0
  3  4  2  0
  3  5  1  0
  5  6  2  3
  5  7  1  0
  6 15  1  0
  6 16  1  0
  7  8  1  0
  7 17  1  0
  8  9  1  0
  8 10  2  0
  9 18  1  0
  9 19  1  0
  9 20  1  0
M  END

> <RosettaParamsInstructions>
M  ROOT 7
M  POLY_N_BB 7
M  POLY_CA_BB 5
M  POLY_C_BB 3
M  POLY_O_BB 4
M  POLY_IGNORE 1 10 9 14 11 12 13 18 19 20
M  POLY_UPPER 2
M  POLY_LOWER 8
M  POLY_CHG 0
M  POLY_PROPERTIES PROTEIN POLYMER ALPHA_AA ALIPHATIC
M  END

$$$$
DHA_new
     RDKit          3D

 20 19  0  0  0  0  0  0  0  0999 V2000
    2.6830   -1.0564    2.5953 C   0  0  0  0  0  0  0  0  0  0  0  0
    1.6786   -0.2632    1.8728 N   0  0  0  0  0  0  0  0  0  0  0  0
    0.5502   -0.8235    1.2996 C   0  0  0  0  0  0  0  0  0  0  0  0
    0.3856   -2.0734    1.4080 O   0  0  0  0  0  0  0  0  0  0  0  0
   -0.4497   -0.0506    0.5830 C   0  0  0  0  0  0  0  0  0  0  0  0
   -0.2894    1.2520    0.4633 C   0  0  0  0  0  0  0  0  0  0  0  0
   -1.5754   -0.7413    0.0328 N   0  0  0  0  0  0  0  0  0  0  0  0
   -2.6452   -0.2223   -0.6834 C   0  0  0  0  0  0  0  0  0  0  0  0
   -3.7160   -1.1675   -1.1593 C   0  0  0  0  0  0  0  0  0  0  0  0
   -2.8383    0.9736   -0.9938 O   0  0  0  0  0  0  0  0  0  0  0  0
    3.5662   -1.1966    1.9397 H   0  0  0  0  0  0  0  0  0  0  0  0
    2.9860   -0.5485    3.5143 H   0  0  0  0  0  0  0  0  0  0  0  0
    2.2488   -2.0515    2.8204 H   0  0  0  0  0  0  0  0  0  0  0  0
    1.8856    0.7432    1.8294 H   0  0  0  0  0  0  0  0  0  0  0  0
   -1.0436    1.8385   -0.0778 H   0  0  0  0  0  0  0  0  0  0  0  0
    0.5701    1.7383    0.8900 H   0  0  0  0  0  0  0  0  0  0  0  0
   -1.5793   -1.7948    0.2038 H   0  0  0  0  0  0  0  0  0  0  0  0
   -4.6961   -0.6589   -1.2431 H   0  0  0  0  0  0  0  0  0  0  0  0
   -3.8641   -1.9793   -0.3964 H   0  0  0  0  0  0  0  0  0  0  0  0
   -3.4635   -1.5702   -2.1578 H   0  0  0  0  0  0  0  0  0  0  0  0
  1  2  1  0
  1 11  1  0
  1 12  1  0
  1 13  1  0
  2  3  1  0
  2 14  1  0
  3  4  2  0
  3  5  1  0
  5  6  2  3
  5  7  1  0
  6 15  1  0
  6 16  1  0
  7  8  1  0
  7 17  1  0
  8  9  1  0
  8 10  2  0
  9 18  1  0
  9 19  1  0
  9 20  1  0
M  END

> <RosettaParamsInstructions>
M  ROOT 7
M  POLY_N_BB 7
M  POLY_CA_BB 5
M  POLY_C_BB 3
M  POLY_O_BB 4
M  POLY_IGNORE 1 10 9 14 11 12 13 18 19 20
M  POLY_UPPER 2
M  POLY_LOWER 8
M  POLY_CHG 0
M  POLY_PROPERTIES PROTEIN POLYMER ALPHA_AA ALIPHATIC
M  END

$$$$
DHA_new
     RDKit          3D

 20 19  0  0  0  0  0  0  0  0999 V2000
    2.7018   -1.0674    2.6003 C   0  0  0  0  0  0  0  0  0  0  0  0
    1.7164   -0.2415    1.8947 N   0  0  0  0  0  0  0  0  0  0  0  0
    0.5747   -0.8208    1.3126 C   0  0  0  0  0  0  0  0  0  0  0  0
    0.4266   -2.0735    1.4175 O   0  0  0  0  0  0  0  0  0  0  0  0
   -0.4754   -0.0854    0.5829 C   0  0  0  0  0  0  0  0  0  0  0  0
   -0.3524    1.2023    0.4579 C   0  0  0  0  0  0  0  0  0  0  0  0
   -1.5786   -0.7833    0.0416 N   0  0  0  0  0  0  0  0  0  0  0  0
   -2.6484   -0.2380   -0.6707 C   0  0  0  0  0  0  0  0  0  0  0  0
   -3.7568   -1.1532   -1.1818 C   0  0  0  0  0  0  0  0  0  0  0  0
   -2.8065    0.9644   -0.9477 O   0  0  0  0  0  0  0  0  0  0  0  0
    2.5562   -0.9840    3.6972 H   0  0  0  0  0  0  0  0  0  0  0  0
    2.6115   -2.1082    2.2280 H   0  0  0  0  0  0  0  0  0  0  0  0
    3.7205   -0.6913    2.3296 H   0  0  0  0  0  0  0  0  0  0  0  0
    1.8766    0.7860    1.8315 H   0  0  0  0  0  0  0  0  0  0  0  0
    0.5015    1.7494    0.8759 H   0  0  0  0  0  0  0  0  0  0  0  0
   -1.0537    1.8350   -0.0510 H   0  0  0  0  0  0  0  0  0  0  0  0
   -1.6243   -1.8487    0.1779 H   0  0  0  0  0  0  0  0  0  0  0  0
   -3.4114   -2.2017   -1.1340 H   0  0  0  0  0  0  0  0  0  0  0  0
   -4.6195   -1.0383   -0.5003 H   0  0  0  0  0  0  0  0  0  0  0  0
   -3.9652   -0.8540   -2.2212 H   0  0  0  0  0  0  0  0  0  0  0  0
  1  2  1  0
  1 11  1  0
  1 12  1  0
  1 13  1  0
  2  3  1  0
  2 14  1  0
  3  4  2  0
  3  5  1  0
  5  6  2  3
  5  7  1  0
  6 15  1  0
  6 16  1  0
  7  8  1  0
  7 17  1  0
  8  9  1  0
  8 10  2  0
  9 18  1  0
  9 19  1  0
  9 20  1  0
M  END

> <RosettaParamsInstructions>
M  ROOT 7
M  POLY_N_BB 7
M  POLY_CA_BB 5
M  POLY_C_BB 3
M  POLY_O_BB 4
M  POLY_IGNORE 1 10 9 14 11 12 13 18 19 20
M  POLY_UPPER 2
M  POLY_LOWER 8
M  POLY_CHG 0
M  POLY_PROPERTIES PROTEIN POLYMER ALPHA_AA ALIPHATIC
M  END

$$$$
DHA_new
     RDKit          3D

 20 19  0  0  0  0  0  0  0  0999 V2000
    2.7074   -1.0576    2.5607 C   0  0  0  0  0  0  0  0  0  0  0  0
    1.6483   -0.2568    1.9036 N   0  0  0  0  0  0  0  0  0  0  0  0
    0.5730   -0.8497    1.2785 C   0  0  0  0  0  0  0  0  0  0  0  0
    0.5025   -2.1237    1.2745 O   0  0  0  0  0  0  0  0  0  0  0  0
   -0.4948   -0.0818    0.6172 C   0  0  0  0  0  0  0  0  0  0  0  0
   -0.4168    1.2117    0.6252 C   0  0  0  0  0  0  0  0  0  0  0  0
   -1.5629   -0.7941    0.0001 N   0  0  0  0  0  0  0  0  0  0  0  0
   -2.6355   -0.2307   -0.6579 C   0  0  0  0  0  0  0  0  0  0  0  0
   -3.6899   -1.1518   -1.2606 C   0  0  0  0  0  0  0  0  0  0  0  0
   -2.8110    0.9909   -0.7993 O   0  0  0  0  0  0  0  0  0  0  0  0
    2.7313   -0.7164    3.6241 H   0  0  0  0  0  0  0  0  0  0  0  0
    3.6393   -0.7981    2.0268 H   0  0  0  0  0  0  0  0  0  0  0  0
    2.4627   -2.1348    2.4739 H   0  0  0  0  0  0  0  0  0  0  0  0
    1.7922    0.7544    1.9594 H   0  0  0  0  0  0  0  0  0  0  0  0
   -1.1406    1.8600    0.1731 H   0  0  0  0  0  0  0  0  0  0  0  0
    0.4159    1.7186    1.1078 H   0  0  0  0  0  0  0  0  0  0  0  0
   -1.5283   -1.8566    0.0526 H   0  0  0  0  0  0  0  0  0  0  0  0
   -4.6558   -0.6118   -1.2532 H   0  0  0  0  0  0  0  0  0  0  0  0
   -3.4078   -1.4219   -2.2912 H   0  0  0  0  0  0  0  0  0  0  0  0
   -3.7357   -2.1020   -0.6743 H   0  0  0  0  0  0  0  0  0  0  0  0
  1  2  1  0
  1 11  1  0
  1 12  1  0
  1 13  1  0
  2  3  1  0
  2 14  1  0
  3  4  2  0
  3  5  1  0
  5  6  2  3
  5  7  1  0
  6 15  1  0
  6 16  1  0
  7  8  1  0
  7 17  1  0
  8  9  1  0
  8 10  2  0
  9 18  1  0
  9 19  1  0
  9 20  1  0
M  END

> <RosettaParamsInstructions>
M  ROOT 7
M  POLY_N_BB 7
M  POLY_CA_BB 5
M  POLY_C_BB 3
M  POLY_O_BB 4
M  POLY_IGNORE 1 10 9 14 11 12 13 18 19 20
M  POLY_UPPER 2
M  POLY_LOWER 8
M  POLY_CHG 0
M  POLY_PROPERTIES PROTEIN POLYMER ALPHA_AA ALIPHATIC
M  END

$$$$
DHA_new
     RDKit          3D

 20 19  0  0  0  0  0  0  0  0999 V2000
    2.7126   -1.0770    2.5070 C   0  0  0  0  0  0  0  0  0  0  0  0
    1.7070   -0.2285    1.8745 N   0  0  0  0  0  0  0  0  0  0  0  0
    0.5911   -0.8157    1.2744 C   0  0  0  0  0  0  0  0  0  0  0  0
    0.4938   -2.0858    1.3032 O   0  0  0  0  0  0  0  0  0  0  0  0
   -0.4831   -0.0658    0.6093 C   0  0  0  0  0  0  0  0  0  0  0  0
   -0.4032    1.2369    0.5684 C   0  0  0  0  0  0  0  0  0  0  0  0
   -1.5747   -0.7983    0.0329 N   0  0  0  0  0  0  0  0  0  0  0  0
   -2.6663   -0.2239   -0.6303 C   0  0  0  0  0  0  0  0  0  0  0  0
   -3.7224   -1.1862   -1.1712 C   0  0  0  0  0  0  0  0  0  0  0  0
   -2.8904    0.9826   -0.8388 O   0  0  0  0  0  0  0  0  0  0  0  0
    3.7122   -0.6138    2.3297 H   0  0  0  0  0  0  0  0  0  0  0  0
    2.5546   -1.1717    3.5811 H   0  0  0  0  0  0  0  0  0  0  0  0
    2.6683   -2.0594    2.0355 H   0  0  0  0  0  0  0  0  0  0  0  0
    1.8414    0.7942    1.8835 H   0  0  0  0  0  0  0  0  0  0  0  0
   -1.1549    1.8722    0.0957 H   0  0  0  0  0  0  0  0  0  0  0  0
    0.4521    1.7642    1.0233 H   0  0  0  0  0  0  0  0  0  0  0  0
   -1.5544   -1.8682    0.1156 H   0  0  0  0  0  0  0  0  0  0  0  0
   -4.4714   -1.2528   -0.3793 H   0  0  0  0  0  0  0  0  0  0  0  0
   -4.2006   -0.7315   -2.0511 H   0  0  0  0  0  0  0  0  0  0  0  0
   -3.2182   -2.1236   -1.4227 H   0  0  0  0  0  0  0  0  0  0  0  0
  1  2  1  0
  1 11  1  0
  1 12  1  0
  1 13  1  0
  2  3  1  0
  2 14  1  0
  3  4  2  0
  3  5  1  0
  5  6  2  3
  5  7  1  0
  6 15  1  0
  6 16  1  0
  7  8  1  0
  7 17  1  0
  8  9  1  0
  8 10  2  0
  9 18  1  0
  9 19  1  0
  9 20  1  0
M  END

> <RosettaParamsInstructions>
M  ROOT 7
M  POLY_N_BB 7
M  POLY_CA_BB 5
M  POLY_C_BB 3
M  POLY_O_BB 4
M  POLY_IGNORE 1 10 9 14 11 12 13 18 19 20
M  POLY_UPPER 2
M  POLY_LOWER 8
M  POLY_CHG 0
M  POLY_PROPERTIES PROTEIN POLYMER ALPHA_AA ALIPHATIC
M  END

$$$$
DHA_new
     RDKit          3D

 20 19  0  0  0  0  0  0  0  0999 V2000
    2.6920   -1.0575    2.5852 C   0  0  0  0  0  0  0  0  0  0  0  0
    1.6946   -0.2617    1.8736 N   0  0  0  0  0  0  0  0  0  0  0  0
    0.5513   -0.8410    1.2959 C   0  0  0  0  0  0  0  0  0  0  0  0
    0.4184   -2.1026    1.4195 O   0  0  0  0  0  0  0  0  0  0  0  0
   -0.4622   -0.0595    0.5771 C   0  0  0  0  0  0  0  0  0  0  0  0
   -0.3302    1.2269    0.4490 C   0  0  0  0  0  0  0  0  0  0  0  0
   -1.5669   -0.7465    0.0394 N   0  0  0  0  0  0  0  0  0  0  0  0
   -2.6523   -0.2391   -0.6779 C   0  0  0  0  0  0  0  0  0  0  0  0
   -3.7570   -1.1518   -1.1795 C   0  0  0  0  0  0  0  0  0  0  0  0
   -2.8234    0.9616   -0.9699 O   0  0  0  0  0  0  0  0  0  0  0  0
    2.9066   -0.5344    3.5327 H   0  0  0  0  0  0  0  0  0  0  0  0
    2.2997   -2.0636    2.8156 H   0  0  0  0  0  0  0  0  0  0  0  0
    3.5871   -1.1213    1.9457 H   0  0  0  0  0  0  0  0  0  0  0  0
    1.9168    0.7560    1.8414 H   0  0  0  0  0  0  0  0  0  0  0  0
    0.5453    1.7253    0.8825 H   0  0  0  0  0  0  0  0  0  0  0  0
   -1.0580    1.8120   -0.0711 H   0  0  0  0  0  0  0  0  0  0  0  0
   -1.5925   -1.8177    0.1954 H   0  0  0  0  0  0  0  0  0  0  0  0
   -3.3346   -2.1649   -1.2145 H   0  0  0  0  0  0  0  0  0  0  0  0
   -4.5612   -1.1163   -0.4150 H   0  0  0  0  0  0  0  0  0  0  0  0
   -4.0798   -0.8561   -2.1841 H   0  0  0  0  0  0  0  0  0  0  0  0
  1  2  1  0
  1 11  1  0
  1 12  1  0
  1 13  1  0
  2  3  1  0
  2 14  1  0
  3  4  2  0
  3  5  1  0
  5  6  2  3
  5  7  1  0
  6 15  1  0
  6 16  1  0
  7  8  1  0
  7 17  1  0
  8  9  1  0
  8 10  2  0
  9 18  1  0
  9 19  1  0
  9 20  1  0
M  END

> <RosettaParamsInstructions>
M  ROOT 7
M  POLY_N_BB 7
M  POLY_CA_BB 5
M  POLY_C_BB 3
M  POLY_O_BB 4
M  POLY_IGNORE 1 10 9 14 11 12 13 18 19 20
M  POLY_UPPER 2
M  POLY_LOWER 8
M  POLY_CHG 0
M  POLY_PROPERTIES PROTEIN POLYMER ALPHA_AA ALIPHATIC
M  END

$$$$
DHA_new
     RDKit          3D

 20 19  0  0  0  0  0  0  0  0999 V2000
    2.6346   -1.0434    2.6587 C   0  0  0  0  0  0  0  0  0  0  0  0
    1.6836   -0.2344    1.8717 N   0  0  0  0  0  0  0  0  0  0  0  0
    0.5360   -0.8344    1.3444 C   0  0  0  0  0  0  0  0  0  0  0  0
    0.3234   -2.0571    1.5446 O   0  0  0  0  0  0  0  0  0  0  0  0
   -0.4438   -0.0778    0.5541 C   0  0  0  0  0  0  0  0  0  0  0  0
   -0.2584    1.2006    0.3227 C   0  0  0  0  0  0  0  0  0  0  0  0
   -1.5903   -0.7549    0.0482 N   0  0  0  0  0  0  0  0  0  0  0  0
   -2.6143   -0.2004   -0.7145 C   0  0  0  0  0  0  0  0  0  0  0  0
   -3.7242   -1.1663   -1.1211 C   0  0  0  0  0  0  0  0  0  0  0  0
   -2.7113    0.9806   -1.0892 O   0  0  0  0  0  0  0  0  0  0  0  0
    3.0123   -0.4369    3.4838 H   0  0  0  0  0  0  0  0  0  0  0  0
    2.1042   -1.9231    3.0579 H   0  0  0  0  0  0  0  0  0  0  0  0
    3.4481   -1.4042    2.0088 H   0  0  0  0  0  0  0  0  0  0  0  0
    1.9025    0.7544    1.7379 H   0  0  0  0  0  0  0  0  0  0  0  0
   -0.9262    1.8156   -0.2426 H   0  0  0  0  0  0  0  0  0  0  0  0
    0.6258    1.7334    0.7101 H   0  0  0  0  0  0  0  0  0  0  0  0
   -1.6404   -1.7957    0.2971 H   0  0  0  0  0  0  0  0  0  0  0  0
   -4.0966   -0.8890   -2.1338 H   0  0  0  0  0  0  0  0  0  0  0  0
   -3.3236   -2.1947   -1.1962 H   0  0  0  0  0  0  0  0  0  0  0  0
   -4.5480   -1.1247   -0.4017 H   0  0  0  0  0  0  0  0  0  0  0  0
  1  2  1  0
  1 11  1  0
  1 12  1  0
  1 13  1  0
  2  3  1  0
  2 14  1  0
  3  4  2  0
  3  5  1  0
  5  6  2  3
  5  7  1  0
  6 15  1  0
  6 16  1  0
  7  8  1  0
  7 17  1  0
  8  9  1  0
  8 10  2  0
  9 18  1  0
  9 19  1  0
  9 20  1  0
M  END

> <RosettaParamsInstructions>
M  ROOT 7
M  POLY_N_BB 7
M  POLY_CA_BB 5
M  POLY_C_BB 3
M  POLY_O_BB 4
M  POLY_IGNORE 1 10 9 14 11 12 13 18 19 20
M  POLY_UPPER 2
M  POLY_LOWER 8
M  POLY_CHG 0
M  POLY_PROPERTIES PROTEIN POLYMER ALPHA_AA ALIPHATIC
M  END

$$$$
DHA_new
     RDKit          3D

 20 19  0  0  0  0  0  0  0  0999 V2000
    2.6628   -1.0739    2.5783 C   0  0  0  0  0  0  0  0  0  0  0  0
    1.6868   -0.2327    1.8672 N   0  0  0  0  0  0  0  0  0  0  0  0
    0.5498   -0.8178    1.2960 C   0  0  0  0  0  0  0  0  0  0  0  0
    0.3939   -2.0638    1.4093 O   0  0  0  0  0  0  0  0  0  0  0  0
   -0.4592   -0.0324    0.5747 C   0  0  0  0  0  0  0  0  0  0  0  0
   -0.3282    1.2658    0.4381 C   0  0  0  0  0  0  0  0  0  0  0  0
   -1.5615   -0.7357    0.0434 N   0  0  0  0  0  0  0  0  0  0  0  0
   -2.6523   -0.2099   -0.6832 C   0  0  0  0  0  0  0  0  0  0  0  0
   -3.7141   -1.1924   -1.1447 C   0  0  0  0  0  0  0  0  0  0  0  0
   -2.8358    0.9872   -0.9877 O   0  0  0  0  0  0  0  0  0  0  0  0
    3.6835   -0.6522    2.4918 H   0  0  0  0  0  0  0  0  0  0  0  0
    2.4206   -1.1395    3.6484 H   0  0  0  0  0  0  0  0  0  0  0  0
    2.6650   -2.1003    2.1522 H   0  0  0  0  0  0  0  0  0  0  0  0
    1.9211    0.7704    1.8398 H   0  0  0  0  0  0  0  0  0  0  0  0
    0.5482    1.7880    0.8666 H   0  0  0  0  0  0  0  0  0  0  0  0
   -1.0471    1.8480   -0.0795 H   0  0  0  0  0  0  0  0  0  0  0  0
   -1.5779   -1.7878    0.2067 H   0  0  0  0  0  0  0  0  0  0  0  0
   -4.0078   -0.9422   -2.1817 H   0  0  0  0  0  0  0  0  0  0  0  0
   -4.6218   -1.1025   -0.5179 H   0  0  0  0  0  0  0  0  0  0  0  0
   -3.3323   -2.2284   -1.0769 H   0  0  0  0  0  0  0  0  0  0  0  0
  1  2  1  0
  1 11  1  0
  1 12  1  0
  1 13  1  0
  2  3  1  0
  2 14  1  0
  3  4  2  0
  3  5  1  0
  5  6  2  3
  5  7  1  0
  6 15  1  0
  6 16  1  0
  7  8  1  0
  7 17  1  0
  8  9  1  0
  8 10  2  0
  9 18  1  0
  9 19  1  0
  9 20  1  0
M  END

> <RosettaParamsInstructions>
M  ROOT 7
M  POLY_N_BB 7
M  POLY_CA_BB 5
M  POLY_C_BB 3
M  POLY_O_BB 4
M  POLY_IGNORE 1 10 9 14 11 12 13 18 19 20
M  POLY_UPPER 2
M  POLY_LOWER 8
M  POLY_CHG 0
M  POLY_PROPERTIES PROTEIN POLYMER ALPHA_AA ALIPHATIC
M  END

$$$$
DHA_new
     RDKit          3D

 20 19  0  0  0  0  0  0  0  0999 V2000
    2.6974   -1.0894    2.5150 C   0  0  0  0  0  0  0  0  0  0  0  0
    1.7048   -0.2226    1.8422 N   0  0  0  0  0  0  0  0  0  0  0  0
    0.5864   -0.8354    1.2843 C   0  0  0  0  0  0  0  0  0  0  0  0
    0.4516   -2.0875    1.3655 O   0  0  0  0  0  0  0  0  0  0  0  0
   -0.4630   -0.0673    0.5918 C   0  0  0  0  0  0  0  0  0  0  0  0
   -0.3294    1.2269    0.5046 C   0  0  0  0  0  0  0  0  0  0  0  0
   -1.5784   -0.7668    0.0466 N   0  0  0  0  0  0  0  0  0  0  0  0
   -2.6814   -0.2591   -0.6437 C   0  0  0  0  0  0  0  0  0  0  0  0
   -3.7744   -1.1882   -1.1472 C   0  0  0  0  0  0  0  0  0  0  0  0
   -2.7947    0.9677   -0.8625 O   0  0  0  0  0  0  0  0  0  0  0  0
    2.2642   -2.0860    2.6807 H   0  0  0  0  0  0  0  0  0  0  0  0
    2.9263   -0.5741    3.4723 H   0  0  0  0  0  0  0  0  0  0  0  0
    3.5853   -1.0975    1.8819 H   0  0  0  0  0  0  0  0  0  0  0  0
    1.9331    0.7788    1.8452 H   0  0  0  0  0  0  0  0  0  0  0  0
    0.5551    1.7086    0.9462 H   0  0  0  0  0  0  0  0  0  0  0  0
   -1.0475    1.8799    0.0145 H   0  0  0  0  0  0  0  0  0  0  0  0
   -1.5881   -1.8365    0.1758 H   0  0  0  0  0  0  0  0  0  0  0  0
   -3.7151   -2.1147   -0.5546 H   0  0  0  0  0  0  0  0  0  0  0  0
   -4.7326   -0.6731   -0.9999 H   0  0  0  0  0  0  0  0  0  0  0  0
   -3.6060   -1.3159   -2.2180 H   0  0  0  0  0  0  0  0  0  0  0  0
  1  2  1  0
  1 11  1  0
  1 12  1  0
  1 13  1  0
  2  3  1  0
  2 14  1  0
  3  4  2  0
  3  5  1  0
  5  6  2  3
  5  7  1  0
  6 15  1  0
  6 16  1  0
  7  8  1  0
  7 17  1  0
  8  9  1  0
  8 10  2  0
  9 18  1  0
  9 19  1  0
  9 20  1  0
M  END

> <RosettaParamsInstructions>
M  ROOT 7
M  POLY_N_BB 7
M  POLY_CA_BB 5
M  POLY_C_BB 3
M  POLY_O_BB 4
M  POLY_IGNORE 1 10 9 14 11 12 13 18 19 20
M  POLY_UPPER 2
M  POLY_LOWER 8
M  POLY_CHG 0
M  POLY_PROPERTIES PROTEIN POLYMER ALPHA_AA ALIPHATIC
M  END

$$$$
DHA_new
     RDKit          3D

 20 19  0  0  0  0  0  0  0  0999 V2000
    2.7222   -1.0127    2.5622 C   0  0  0  0  0  0  0  0  0  0  0  0
    1.6756   -0.2590    1.8546 N   0  0  0  0  0  0  0  0  0  0  0  0
    0.5702   -0.8682    1.2947 C   0  0  0  0  0  0  0  0  0  0  0  0
    0.4704   -2.1364    1.4060 O   0  0  0  0  0  0  0  0  0  0  0  0
   -0.4821   -0.1144    0.5839 C   0  0  0  0  0  0  0  0  0  0  0  0
   -0.3395    1.1889    0.4928 C   0  0  0  0  0  0  0  0  0  0  0  0
   -1.5771   -0.8276    0.0439 N   0  0  0  0  0  0  0  0  0  0  0  0
   -2.6372   -0.2578   -0.6468 C   0  0  0  0  0  0  0  0  0  0  0  0
   -3.7485   -1.1452   -1.1730 C   0  0  0  0  0  0  0  0  0  0  0  0
   -2.7837    0.9553   -0.8936 O   0  0  0  0  0  0  0  0  0  0  0  0
    2.8162   -0.5506    3.5566 H   0  0  0  0  0  0  0  0  0  0  0  0
    2.3835   -2.0513    2.6686 H   0  0  0  0  0  0  0  0  0  0  0  0
    3.6680   -1.0055    2.0099 H   0  0  0  0  0  0  0  0  0  0  0  0
    1.8530    0.7576    1.8219 H   0  0  0  0  0  0  0  0  0  0  0  0
    0.5183    1.7081    0.9210 H   0  0  0  0  0  0  0  0  0  0  0  0
   -1.0354    1.8489    0.0012 H   0  0  0  0  0  0  0  0  0  0  0  0
   -1.5828   -1.8844    0.1816 H   0  0  0  0  0  0  0  0  0  0  0  0
   -3.4869   -2.2057   -1.0801 H   0  0  0  0  0  0  0  0  0  0  0  0
   -4.6706   -0.8847   -0.6191 H   0  0  0  0  0  0  0  0  0  0  0  0
   -3.9401   -0.9076   -2.2456 H   0  0  0  0  0  0  0  0  0  0  0  0
  1  2  1  0
  1 11  1  0
  1 12  1  0
  1 13  1  0
  2  3  1  0
  2 14  1  0
  3  4  2  0
  3  5  1  0
  5  6  2  3
  5  7  1  0
  6 15  1  0
  6 16  1  0
  7  8  1  0
  7 17  1  0
  8  9  1  0
  8 10  2  0
  9 18  1  0
  9 19  1  0
  9 20  1  0
M  END

> <RosettaParamsInstructions>
M  ROOT 7
M  POLY_N_BB 7
M  POLY_CA_BB 5
M  POLY_C_BB 3
M  POLY_O_BB 4
M  POLY_IGNORE 1 10 9 14 11 12 13 18 19 20
M  POLY_UPPER 2
M  POLY_LOWER 8
M  POLY_CHG 0
M  POLY_PROPERTIES PROTEIN POLYMER ALPHA_AA ALIPHATIC
M  END

$$$$
DHA_new
     RDKit          3D

 20 19  0  0  0  0  0  0  0  0999 V2000
    2.6265   -1.0460    2.7007 C   0  0  0  0  0  0  0  0  0  0  0  0
    1.6984   -0.2334    1.9005 N   0  0  0  0  0  0  0  0  0  0  0  0
    0.5538   -0.8241    1.3757 C   0  0  0  0  0  0  0  0  0  0  0  0
    0.3249   -2.0365    1.5882 O   0  0  0  0  0  0  0  0  0  0  0  0
   -0.4293   -0.0875    0.5642 C   0  0  0  0  0  0  0  0  0  0  0  0
   -0.2591    1.1971    0.2951 C   0  0  0  0  0  0  0  0  0  0  0  0
   -1.5700   -0.7499    0.0626 N   0  0  0  0  0  0  0  0  0  0  0  0
   -2.6135   -0.2431   -0.7191 C   0  0  0  0  0  0  0  0  0  0  0  0
   -3.7499   -1.1422   -1.1493 C   0  0  0  0  0  0  0  0  0  0  0  0
   -2.7360    0.9379   -1.1361 O   0  0  0  0  0  0  0  0  0  0  0  0
    2.5249   -0.8292    3.7690 H   0  0  0  0  0  0  0  0  0  0  0  0
    2.4680   -2.1257    2.5269 H   0  0  0  0  0  0  0  0  0  0  0  0
    3.6595   -0.8199    2.3145 H   0  0  0  0  0  0  0  0  0  0  0  0
    1.9180    0.7666    1.7441 H   0  0  0  0  0  0  0  0  0  0  0  0
    0.6159    1.7273    0.6735 H   0  0  0  0  0  0  0  0  0  0  0  0
   -0.9175    1.8107   -0.2833 H   0  0  0  0  0  0  0  0  0  0  0  0
   -1.6505   -1.7890    0.3150 H   0  0  0  0  0  0  0  0  0  0  0  0
   -3.8242   -1.1903   -2.2506 H   0  0  0  0  0  0  0  0  0  0  0  0
   -3.5387   -2.1785   -0.7966 H   0  0  0  0  0  0  0  0  0  0  0  0
   -4.7076   -0.7964   -0.7540 H   0  0  0  0  0  0  0  0  0  0  0  0
  1  2  1  0
  1 11  1  0
  1 12  1  0
  1 13  1  0
  2  3  1  0
  2 14  1  0
  3  4  2  0
  3  5  1  0
  5  6  2  3
  5  7  1  0
  6 15  1  0
  6 16  1  0
  7  8  1  0
  7 17  1  0
  8  9  1  0
  8 10  2  0
  9 18  1  0
  9 19  1  0
  9 20  1  0
M  END

> <RosettaParamsInstructions>
M  ROOT 7
M  POLY_N_BB 7
M  POLY_CA_BB 5
M  POLY_C_BB 3
M  POLY_O_BB 4
M  POLY_IGNORE 1 10 9 14 11 12 13 18 19 20
M  POLY_UPPER 2
M  POLY_LOWER 8
M  POLY_CHG 0
M  POLY_PROPERTIES PROTEIN POLYMER ALPHA_AA ALIPHATIC
M  END

$$$$
DHA_new
     RDKit          3D

 20 19  0  0  0  0  0  0  0  0999 V2000
    2.6822   -1.0622    2.6166 C   0  0  0  0  0  0  0  0  0  0  0  0
    1.7031   -0.2408    1.8771 N   0  0  0  0  0  0  0  0  0  0  0  0
    0.5598   -0.8296    1.3136 C   0  0  0  0  0  0  0  0  0  0  0  0
    0.3915   -2.0760    1.4555 O   0  0  0  0  0  0  0  0  0  0  0  0
   -0.4620   -0.0834    0.5633 C   0  0  0  0  0  0  0  0  0  0  0  0
   -0.3230    1.2060    0.3957 C   0  0  0  0  0  0  0  0  0  0  0  0
   -1.5865   -0.7678    0.0296 N   0  0  0  0  0  0  0  0  0  0  0  0
   -2.6402   -0.2186   -0.7014 C   0  0  0  0  0  0  0  0  0  0  0  0
   -3.7335   -1.1444   -1.1699 C   0  0  0  0  0  0  0  0  0  0  0  0
   -2.7735    0.9882   -1.0144 O   0  0  0  0  0  0  0  0  0  0  0  0
    2.5740   -2.1256    2.2805 H   0  0  0  0  0  0  0  0  0  0  0  0
    3.6920   -0.6586    2.4146 H   0  0  0  0  0  0  0  0  0  0  0  0
    2.4367   -1.0055    3.7035 H   0  0  0  0  0  0  0  0  0  0  0  0
    1.9208    0.7581    1.8124 H   0  0  0  0  0  0  0  0  0  0  0  0
    0.5567    1.7169    0.8180 H   0  0  0  0  0  0  0  0  0  0  0  0
   -0.9870    1.8599   -0.1246 H   0  0  0  0  0  0  0  0  0  0  0  0
   -1.6275   -1.8208    0.2095 H   0  0  0  0  0  0  0  0  0  0  0  0
   -3.2338   -2.0740   -1.4947 H   0  0  0  0  0  0  0  0  0  0  0  0
   -4.3916   -1.3926   -0.3071 H   0  0  0  0  0  0  0  0  0  0  0  0
   -4.3645   -0.6813   -1.9368 H   0  0  0  0  0  0  0  0  0  0  0  0
  1  2  1  0
  1 11  1  0
  1 12  1  0
  1 13  1  0
  2  3  1  0
  2 14  1  0
  3  4  2  0
  3  5  1  0
  5  6  2  3
  5  7  1  0
  6 15  1  0
  6 16  1  0
  7  8  1  0
  7 17  1  0
  8  9  1  0
  8 10  2  0
  9 18  1  0
  9 19  1  0
  9 20  1  0
M  END

> <RosettaParamsInstructions>
M  ROOT 7
M  POLY_N_BB 7
M  POLY_CA_BB 5
M  POLY_C_BB 3
M  POLY_O_BB 4
M  POLY_IGNORE 1 10 9 14 11 12 13 18 19 20
M  POLY_UPPER 2
M  POLY_LOWER 8
M  POLY_CHG 0
M  POLY_PROPERTIES PROTEIN POLYMER ALPHA_AA ALIPHATIC
M  END

$$$$
DHA_new
     RDKit          3D

 20 19  0  0  0  0  0  0  0  0999 V2000
    2.6490   -0.9978    2.6900 C   0  0  0  0  0  0  0  0  0  0  0  0
    1.6774   -0.2267    1.8666 N   0  0  0  0  0  0  0  0  0  0  0  0
    0.5289   -0.8590    1.3705 C   0  0  0  0  0  0  0  0  0  0  0  0
    0.3060   -2.0944    1.6181 O   0  0  0  0  0  0  0  0  0  0  0  0
   -0.4531   -0.1132    0.5486 C   0  0  0  0  0  0  0  0  0  0  0  0
   -0.2447    1.1412    0.2863 C   0  0  0  0  0  0  0  0  0  0  0  0
   -1.5961   -0.8055    0.0744 N   0  0  0  0  0  0  0  0  0  0  0  0
   -2.6013   -0.2474   -0.7033 C   0  0  0  0  0  0  0  0  0  0  0  0
   -3.7682   -1.1292   -1.1332 C   0  0  0  0  0  0  0  0  0  0  0  0
   -2.6568    0.9364   -1.1027 O   0  0  0  0  0  0  0  0  0  0  0  0
    3.6728   -0.6526    2.4616 H   0  0  0  0  0  0  0  0  0  0  0  0
    2.5923   -2.0517    2.3414 H   0  0  0  0  0  0  0  0  0  0  0  0
    2.3675   -0.8816    3.7553 H   0  0  0  0  0  0  0  0  0  0  0  0
    1.9447    0.7530    1.7247 H   0  0  0  0  0  0  0  0  0  0  0  0
   -0.8778    1.7693   -0.2891 H   0  0  0  0  0  0  0  0  0  0  0  0
    0.6460    1.6324    0.6708 H   0  0  0  0  0  0  0  0  0  0  0  0
   -1.7201   -1.8416    0.3200 H   0  0  0  0  0  0  0  0  0  0  0  0
   -3.9010   -0.9205   -2.2047 H   0  0  0  0  0  0  0  0  0  0  0  0
   -3.5117   -2.1881   -1.0085 H   0  0  0  0  0  0  0  0  0  0  0  0
   -4.6602   -0.8753   -0.5457 H   0  0  0  0  0  0  0  0  0  0  0  0
  1  2  1  0
  1 11  1  0
  1 12  1  0
  1 13  1  0
  2  3  1  0
  2 14  1  0
  3  4  2  0
  3  5  1  0
  5  6  2  3
  5  7  1  0
  6 15  1  0
  6 16  1  0
  7  8  1  0
  7 17  1  0
  8  9  1  0
  8 10  2  0
  9 18  1  0
  9 19  1  0
  9 20  1  0
M  END

> <RosettaParamsInstructions>
M  ROOT 7
M  POLY_N_BB 7
M  POLY_CA_BB 5
M  POLY_C_BB 3
M  POLY_O_BB 4
M  POLY_IGNORE 1 10 9 14 11 12 13 18 19 20
M  POLY_UPPER 2
M  POLY_LOWER 8
M  POLY_CHG 0
M  POLY_PROPERTIES PROTEIN POLYMER ALPHA_AA ALIPHATIC
M  END

$$$$
DHA_new
     RDKit          3D

 20 19  0  0  0  0  0  0  0  0999 V2000
    2.6143   -1.0323    2.6768 C   0  0  0  0  0  0  0  0  0  0  0  0
    1.6827   -0.2429    1.8788 N   0  0  0  0  0  0  0  0  0  0  0  0
    0.5387   -0.8221    1.3582 C   0  0  0  0  0  0  0  0  0  0  0  0
    0.2982   -2.0363    1.5728 O   0  0  0  0  0  0  0  0  0  0  0  0
   -0.4508   -0.0733    0.5372 C   0  0  0  0  0  0  0  0  0  0  0  0
   -0.2379    1.1943    0.2901 C   0  0  0  0  0  0  0  0  0  0  0  0
   -1.5893   -0.7719    0.0554 N   0  0  0  0  0  0  0  0  0  0  0  0
   -2.6030   -0.2499   -0.7130 C   0  0  0  0  0  0  0  0  0  0  0  0
   -3.7472   -1.1464   -1.1395 C   0  0  0  0  0  0  0  0  0  0  0  0
   -2.6850    0.9148   -1.1080 O   0  0  0  0  0  0  0  0  0  0  0  0
    3.6481   -0.6757    2.5183 H   0  0  0  0  0  0  0  0  0  0  0  0
    2.5773   -2.0736    2.3063 H   0  0  0  0  0  0  0  0  0  0  0  0
    2.4136   -0.9410    3.7612 H   0  0  0  0  0  0  0  0  0  0  0  0
    1.9368    0.7395    1.7412 H   0  0  0  0  0  0  0  0  0  0  0  0
   -0.9362    1.7575   -0.2996 H   0  0  0  0  0  0  0  0  0  0  0  0
    0.6562    1.6886    0.6846 H   0  0  0  0  0  0  0  0  0  0  0  0
   -1.6862   -1.8170    0.3067 H   0  0  0  0  0  0  0  0  0  0  0  0
   -3.5876   -1.4397   -2.1905 H   0  0  0  0  0  0  0  0  0  0  0  0
   -3.7713   -2.0595   -0.5115 H   0  0  0  0  0  0  0  0  0  0  0  0
   -4.6778   -0.5652   -0.9845 H   0  0  0  0  0  0  0  0  0  0  0  0
  1  2  1  0
  1 11  1  0
  1 12  1  0
  1 13  1  0
  2  3  1  0
  2 14  1  0
  3  4  2  0
  3  5  1  0
  5  6  2  3
  5  7  1  0
  6 15  1  0
  6 16  1  0
  7  8  1  0
  7 17  1  0
  8  9  1  0
  8 10  2  0
  9 18  1  0
  9 19  1  0
  9 20  1  0
M  END

> <RosettaParamsInstructions>
M  ROOT 7
M  POLY_N_BB 7
M  POLY_CA_BB 5
M  POLY_C_BB 3
M  POLY_O_BB 4
M  POLY_IGNORE 1 10 9 14 11 12 13 18 19 20
M  POLY_UPPER 2
M  POLY_LOWER 8
M  POLY_CHG 0
M  POLY_PROPERTIES PROTEIN POLYMER ALPHA_AA ALIPHATIC
M  END

$$$$
DHA_new
     RDKit          3D

 20 19  0  0  0  0  0  0  0  0999 V2000
    2.6125   -1.0427    2.6817 C   0  0  0  0  0  0  0  0  0  0  0  0
    1.6918   -0.2351    1.8766 N   0  0  0  0  0  0  0  0  0  0  0  0
    0.5367   -0.8276    1.3563 C   0  0  0  0  0  0  0  0  0  0  0  0
    0.3171   -2.0463    1.5948 O   0  0  0  0  0  0  0  0  0  0  0  0
   -0.4322   -0.0705    0.5374 C   0  0  0  0  0  0  0  0  0  0  0  0
   -0.2368    1.1898    0.2715 C   0  0  0  0  0  0  0  0  0  0  0  0
   -1.5766   -0.7501    0.0503 N   0  0  0  0  0  0  0  0  0  0  0  0
   -2.6106   -0.2292   -0.7362 C   0  0  0  0  0  0  0  0  0  0  0  0
   -3.7288   -1.1649   -1.1292 C   0  0  0  0  0  0  0  0  0  0  0  0
   -2.7203    0.9378   -1.1587 O   0  0  0  0  0  0  0  0  0  0  0  0
    3.6439   -0.7628    2.3810 H   0  0  0  0  0  0  0  0  0  0  0  0
    2.4660   -2.1069    2.4350 H   0  0  0  0  0  0  0  0  0  0  0  0
    2.4529   -0.8419    3.7568 H   0  0  0  0  0  0  0  0  0  0  0  0
    1.9559    0.7436    1.7383 H   0  0  0  0  0  0  0  0  0  0  0  0
   -0.9207    1.7583   -0.3169 H   0  0  0  0  0  0  0  0  0  0  0  0
    0.6640    1.6863    0.6667 H   0  0  0  0  0  0  0  0  0  0  0  0
   -1.6544   -1.7983    0.3228 H   0  0  0  0  0  0  0  0  0  0  0  0
   -3.6185   -1.4981   -2.1797 H   0  0  0  0  0  0  0  0  0  0  0  0
   -3.7670   -2.0142   -0.4295 H   0  0  0  0  0  0  0  0  0  0  0  0
   -4.6813   -0.5794   -0.9782 H   0  0  0  0  0  0  0  0  0  0  0  0
  1  2  1  0
  1 11  1  0
  1 12  1  0
  1 13  1  0
  2  3  1  0
  2 14  1  0
  3  4  2  0
  3  5  1  0
  5  6  2  3
  5  7  1  0
  6 15  1  0
  6 16  1  0
  7  8  1  0
  7 17  1  0
  8  9  1  0
  8 10  2  0
  9 18  1  0
  9 19  1  0
  9 20  1  0
M  END

> <RosettaParamsInstructions>
M  ROOT 7
M  POLY_N_BB 7
M  POLY_CA_BB 5
M  POLY_C_BB 3
M  POLY_O_BB 4
M  POLY_IGNORE 1 10 9 14 11 12 13 18 19 20
M  POLY_UPPER 2
M  POLY_LOWER 8
M  POLY_CHG 0
M  POLY_PROPERTIES PROTEIN POLYMER ALPHA_AA ALIPHATIC
M  END

$$$$
DHA_new
     RDKit          3D

 20 19  0  0  0  0  0  0  0  0999 V2000
    2.6942   -1.0687    2.5729 C   0  0  0  0  0  0  0  0  0  0  0  0
    1.6685   -0.2194    1.9098 N   0  0  0  0  0  0  0  0  0  0  0  0
    0.5788   -0.8348    1.2917 C   0  0  0  0  0  0  0  0  0  0  0  0
    0.4842   -2.0877    1.3064 O   0  0  0  0  0  0  0  0  0  0  0  0
   -0.4720   -0.0820    0.6191 C   0  0  0  0  0  0  0  0  0  0  0  0
   -0.3892    1.2281    0.5940 C   0  0  0  0  0  0  0  0  0  0  0  0
   -1.5650   -0.7799    0.0038 N   0  0  0  0  0  0  0  0  0  0  0  0
   -2.6454   -0.2545   -0.6737 C   0  0  0  0  0  0  0  0  0  0  0  0
   -3.6875   -1.1753   -1.2457 C   0  0  0  0  0  0  0  0  0  0  0  0
   -2.8469    0.9592   -0.8636 O   0  0  0  0  0  0  0  0  0  0  0  0
    3.0119   -0.5289    3.4655 H   0  0  0  0  0  0  0  0  0  0  0  0
    3.5005   -1.2137    1.8438 H   0  0  0  0  0  0  0  0  0  0  0  0
    2.2102   -2.0306    2.8393 H   0  0  0  0  0  0  0  0  0  0  0  0
    1.8200    0.7997    1.9425 H   0  0  0  0  0  0  0  0  0  0  0  0
    0.4328    1.7365    1.0577 H   0  0  0  0  0  0  0  0  0  0  0  0
   -1.1141    1.8582    0.1236 H   0  0  0  0  0  0  0  0  0  0  0  0
   -1.5022   -1.8318    0.1013 H   0  0  0  0  0  0  0  0  0  0  0  0
   -3.7133   -1.0004   -2.3226 H   0  0  0  0  0  0  0  0  0  0  0  0
   -4.6526   -0.8951   -0.7886 H   0  0  0  0  0  0  0  0  0  0  0  0
   -3.4193   -2.2309   -1.0364 H   0  0  0  0  0  0  0  0  0  0  0  0
  1  2  1  0
  1 11  1  0
  1 12  1  0
  1 13  1  0
  2  3  1  0
  2 14  1  0
  3  4  2  0
  3  5  1  0
  5  6  2  3
  5  7  1  0
  6 15  1  0
  6 16  1  0
  7  8  1  0
  7 17  1  0
  8  9  1  0
  8 10  2  0
  9 18  1  0
  9 19  1  0
  9 20  1  0
M  END

> <RosettaParamsInstructions>
M  ROOT 7
M  POLY_N_BB 7
M  POLY_CA_BB 5
M  POLY_C_BB 3
M  POLY_O_BB 4
M  POLY_IGNORE 1 10 9 14 11 12 13 18 19 20
M  POLY_UPPER 2
M  POLY_LOWER 8
M  POLY_CHG 0
M  POLY_PROPERTIES PROTEIN POLYMER ALPHA_AA ALIPHATIC
M  END

$$$$
DHA_new
     RDKit          3D

 20 19  0  0  0  0  0  0  0  0999 V2000
    2.7242   -1.0394    2.5208 C   0  0  0  0  0  0  0  0  0  0  0  0
    1.6852   -0.2210    1.8597 N   0  0  0  0  0  0  0  0  0  0  0  0
    0.5783   -0.8373    1.2791 C   0  0  0  0  0  0  0  0  0  0  0  0
    0.4653   -2.0847    1.3183 O   0  0  0  0  0  0  0  0  0  0  0  0
   -0.4768   -0.0947    0.6151 C   0  0  0  0  0  0  0  0  0  0  0  0
   -0.3847    1.2041    0.5598 C   0  0  0  0  0  0  0  0  0  0  0  0
   -1.5810   -0.8046    0.0437 N   0  0  0  0  0  0  0  0  0  0  0  0
   -2.6503   -0.2471   -0.6130 C   0  0  0  0  0  0  0  0  0  0  0  0
   -3.7357   -1.1471   -1.1578 C   0  0  0  0  0  0  0  0  0  0  0  0
   -2.8297    0.9552   -0.8152 O   0  0  0  0  0  0  0  0  0  0  0  0
    3.7214   -0.6024    2.3213 H   0  0  0  0  0  0  0  0  0  0  0  0
    2.6738   -2.0313    2.0393 H   0  0  0  0  0  0  0  0  0  0  0  0
    2.5266   -1.0992    3.5888 H   0  0  0  0  0  0  0  0  0  0  0  0
    1.8987    0.7999    1.8972 H   0  0  0  0  0  0  0  0  0  0  0  0
   -1.1175    1.8433    0.0883 H   0  0  0  0  0  0  0  0  0  0  0  0
    0.4930    1.6832    1.0211 H   0  0  0  0  0  0  0  0  0  0  0  0
   -1.5745   -1.8690    0.1359 H   0  0  0  0  0  0  0  0  0  0  0  0
   -4.6685   -1.0364   -0.5699 H   0  0  0  0  0  0  0  0  0  0  0  0
   -3.9742   -0.8405   -2.1979 H   0  0  0  0  0  0  0  0  0  0  0  0
   -3.3800   -2.1833   -1.1939 H   0  0  0  0  0  0  0  0  0  0  0  0
  1  2  1  0
  1 11  1  0
  1 12  1  0
  1 13  1  0
  2  3  1  0
  2 14  1  0
  3  4  2  0
  3  5  1  0
  5  6  2  3
  5  7  1  0
  6 15  1  0
  6 16  1  0
  7  8  1  0
  7 17  1  0
  8  9  1  0
  8 10  2  0
  9 18  1  0
  9 19  1  0
  9 20  1  0
M  END

> <RosettaParamsInstructions>
M  ROOT 7
M  POLY_N_BB 7
M  POLY_CA_BB 5
M  POLY_C_BB 3
M  POLY_O_BB 4
M  POLY_IGNORE 1 10 9 14 11 12 13 18 19 20
M  POLY_UPPER 2
M  POLY_LOWER 8
M  POLY_CHG 0
M  POLY_PROPERTIES PROTEIN POLYMER ALPHA_AA ALIPHATIC
M  END

$$$$
DHA_new
     RDKit          3D

 20 19  0  0  0  0  0  0  0  0999 V2000
    2.6701   -1.0722    2.5657 C   0  0  0  0  0  0  0  0  0  0  0  0
    1.6809   -0.2467    1.8511 N   0  0  0  0  0  0  0  0  0  0  0  0
    0.5522   -0.8517    1.2950 C   0  0  0  0  0  0  0  0  0  0  0  0
    0.3726   -2.1019    1.4001 O   0  0  0  0  0  0  0  0  0  0  0  0
   -0.4551   -0.0748    0.5780 C   0  0  0  0  0  0  0  0  0  0  0  0
   -0.2941    1.2222    0.4543 C   0  0  0  0  0  0  0  0  0  0  0  0
   -1.5880   -0.7665    0.0340 N   0  0  0  0  0  0  0  0  0  0  0  0
   -2.6473   -0.2209   -0.6746 C   0  0  0  0  0  0  0  0  0  0  0  0
   -3.7346   -1.1689   -1.1490 C   0  0  0  0  0  0  0  0  0  0  0  0
   -2.7866    0.9906   -0.9590 O   0  0  0  0  0  0  0  0  0  0  0  0
    2.5499   -2.1147    2.2245 H   0  0  0  0  0  0  0  0  0  0  0  0
    3.6904   -0.6873    2.3982 H   0  0  0  0  0  0  0  0  0  0  0  0
    2.4411   -0.9388    3.6478 H   0  0  0  0  0  0  0  0  0  0  0  0
    1.8935    0.7492    1.8080 H   0  0  0  0  0  0  0  0  0  0  0  0
   -0.9973    1.8621   -0.0626 H   0  0  0  0  0  0  0  0  0  0  0  0
    0.5710    1.7559    0.8688 H   0  0  0  0  0  0  0  0  0  0  0  0
   -1.6107   -1.8180    0.1972 H   0  0  0  0  0  0  0  0  0  0  0  0
   -4.1231   -1.6517   -0.2145 H   0  0  0  0  0  0  0  0  0  0  0  0
   -3.2813   -1.9009   -1.8302 H   0  0  0  0  0  0  0  0  0  0  0  0
   -4.5102   -0.6173   -1.6919 H   0  0  0  0  0  0  0  0  0  0  0  0
  1  2  1  0
  1 11  1  0
  1 12  1  0
  1 13  1  0
  2  3  1  0
  2 14  1  0
  3  4  2  0
  3  5  1  0
  5  6  2  3
  5  7  1  0
  6 15  1  0
  6 16  1  0
  7  8  1  0
  7 17  1  0
  8  9  1  0
  8 10  2  0
  9 18  1  0
  9 19  1  0
  9 20  1  0
M  END

> <RosettaParamsInstructions>
M  ROOT 7
M  POLY_N_BB 7
M  POLY_CA_BB 5
M  POLY_C_BB 3
M  POLY_O_BB 4
M  POLY_IGNORE 1 10 9 14 11 12 13 18 19 20
M  POLY_UPPER 2
M  POLY_LOWER 8
M  POLY_CHG 0
M  POLY_PROPERTIES PROTEIN POLYMER ALPHA_AA ALIPHATIC
M  END

$$$$
DHA_new
     RDKit          3D

 20 19  0  0  0  0  0  0  0  0999 V2000
    2.6641   -1.0621    2.5808 C   0  0  0  0  0  0  0  0  0  0  0  0
    1.6897   -0.2037    1.8630 N   0  0  0  0  0  0  0  0  0  0  0  0
    0.5774   -0.8393    1.3274 C   0  0  0  0  0  0  0  0  0  0  0  0
    0.4186   -2.0834    1.4538 O   0  0  0  0  0  0  0  0  0  0  0  0
   -0.4564   -0.0694    0.5906 C   0  0  0  0  0  0  0  0  0  0  0  0
   -0.3073    1.2214    0.4505 C   0  0  0  0  0  0  0  0  0  0  0  0
   -1.5715   -0.7454    0.0606 N   0  0  0  0  0  0  0  0  0  0  0  0
   -2.6499   -0.2512   -0.6538 C   0  0  0  0  0  0  0  0  0  0  0  0
   -3.7584   -1.1569   -1.1395 C   0  0  0  0  0  0  0  0  0  0  0  0
   -2.8010    0.9424   -0.9515 O   0  0  0  0  0  0  0  0  0  0  0  0
    3.3212   -0.4500    3.2124 H   0  0  0  0  0  0  0  0  0  0  0  0
    2.0795   -1.8118    3.1461 H   0  0  0  0  0  0  0  0  0  0  0  0
    3.3106   -1.6000    1.8641 H   0  0  0  0  0  0  0  0  0  0  0  0
    1.8544    0.8028    1.7819 H   0  0  0  0  0  0  0  0  0  0  0  0
   -1.0302    1.8121   -0.0739 H   0  0  0  0  0  0  0  0  0  0  0  0
    0.5319    1.7676    0.8428 H   0  0  0  0  0  0  0  0  0  0  0  0
   -1.5811   -1.8040    0.2411 H   0  0  0  0  0  0  0  0  0  0  0  0
   -4.6477   -1.0582   -0.5092 H   0  0  0  0  0  0  0  0  0  0  0  0
   -3.3313   -2.1764   -1.1429 H   0  0  0  0  0  0  0  0  0  0  0  0
   -3.9192   -0.8866   -2.2034 H   0  0  0  0  0  0  0  0  0  0  0  0
  1  2  1  0
  1 11  1  0
  1 12  1  0
  1 13  1  0
  2  3  1  0
  2 14  1  0
  3  4  2  0
  3  5  1  0
  5  6  2  3
  5  7  1  0
  6 15  1  0
  6 16  1  0
  7  8  1  0
  7 17  1  0
  8  9  1  0
  8 10  2  0
  9 18  1  0
  9 19  1  0
  9 20  1  0
M  END

> <RosettaParamsInstructions>
M  ROOT 7
M  POLY_N_BB 7
M  POLY_CA_BB 5
M  POLY_C_BB 3
M  POLY_O_BB 4
M  POLY_IGNORE 1 10 9 14 11 12 13 18 19 20
M  POLY_UPPER 2
M  POLY_LOWER 8
M  POLY_CHG 0
M  POLY_PROPERTIES PROTEIN POLYMER ALPHA_AA ALIPHATIC
M  END

$$$$
DHA_new
     RDKit          3D

 20 19  0  0  0  0  0  0  0  0999 V2000
    2.6077   -1.0298    2.6508 C   0  0  0  0  0  0  0  0  0  0  0  0
    1.6651   -0.1855    1.8970 N   0  0  0  0  0  0  0  0  0  0  0  0
    0.5499   -0.8097    1.3465 C   0  0  0  0  0  0  0  0  0  0  0  0
    0.3834   -2.0475    1.5050 O   0  0  0  0  0  0  0  0  0  0  0  0
   -0.4446   -0.0606    0.5811 C   0  0  0  0  0  0  0  0  0  0  0  0
   -0.2671    1.2234    0.4196 C   0  0  0  0  0  0  0  0  0  0  0  0
   -1.5740   -0.7742    0.0408 N   0  0  0  0  0  0  0  0  0  0  0  0
   -2.6149   -0.2495   -0.7058 C   0  0  0  0  0  0  0  0  0  0  0  0
   -3.6963   -1.1918   -1.1686 C   0  0  0  0  0  0  0  0  0  0  0  0
   -2.7514    0.9458   -1.0406 O   0  0  0  0  0  0  0  0  0  0  0  0
    2.0422   -1.4769    3.4831 H   0  0  0  0  0  0  0  0  0  0  0  0
    3.5105   -0.5014    2.9505 H   0  0  0  0  0  0  0  0  0  0  0  0
    2.8844   -1.8573    1.9586 H   0  0  0  0  0  0  0  0  0  0  0  0
    1.9218    0.8124    1.8442 H   0  0  0  0  0  0  0  0  0  0  0  0
   -0.9585    1.8497   -0.1347 H   0  0  0  0  0  0  0  0  0  0  0  0
    0.5918    1.7481    0.8344 H   0  0  0  0  0  0  0  0  0  0  0  0
   -1.5979   -1.8246    0.2470 H   0  0  0  0  0  0  0  0  0  0  0  0
   -4.0715   -0.8456   -2.1672 H   0  0  0  0  0  0  0  0  0  0  0  0
   -3.2407   -2.1738   -1.3345 H   0  0  0  0  0  0  0  0  0  0  0  0
   -4.5465   -1.2035   -0.4662 H   0  0  0  0  0  0  0  0  0  0  0  0
  1  2  1  0
  1 11  1  0
  1 12  1  0
  1 13  1  0
  2  3  1  0
  2 14  1  0
  3  4  2  0
  3  5  1  0
  5  6  2  3
  5  7  1  0
  6 15  1  0
  6 16  1  0
  7  8  1  0
  7 17  1  0
  8  9  1  0
  8 10  2  0
  9 18  1  0
  9 19  1  0
  9 20  1  0
M  END

> <RosettaParamsInstructions>
M  ROOT 7
M  POLY_N_BB 7
M  POLY_CA_BB 5
M  POLY_C_BB 3
M  POLY_O_BB 4
M  POLY_IGNORE 1 10 9 14 11 12 13 18 19 20
M  POLY_UPPER 2
M  POLY_LOWER 8
M  POLY_CHG 0
M  POLY_PROPERTIES PROTEIN POLYMER ALPHA_AA ALIPHATIC
M  END

$$$$
DHA_new
     RDKit          3D

 20 19  0  0  0  0  0  0  0  0999 V2000
    2.6960   -1.0416    2.5916 C   0  0  0  0  0  0  0  0  0  0  0  0
    1.6883   -0.2448    1.8725 N   0  0  0  0  0  0  0  0  0  0  0  0
    0.5828   -0.8538    1.3175 C   0  0  0  0  0  0  0  0  0  0  0  0
    0.4031   -2.0915    1.4069 O   0  0  0  0  0  0  0  0  0  0  0  0
   -0.4450   -0.0785    0.5899 C   0  0  0  0  0  0  0  0  0  0  0  0
   -0.3358    1.2198    0.4494 C   0  0  0  0  0  0  0  0  0  0  0  0
   -1.5611   -0.7606    0.0402 N   0  0  0  0  0  0  0  0  0  0  0  0
   -2.6428   -0.2472   -0.6777 C   0  0  0  0  0  0  0  0  0  0  0  0
   -3.7343   -1.1627   -1.1761 C   0  0  0  0  0  0  0  0  0  0  0  0
   -2.8047    0.9446   -0.9610 O   0  0  0  0  0  0  0  0  0  0  0  0
    3.3935   -1.5369    1.8838 H   0  0  0  0  0  0  0  0  0  0  0  0
    3.2857   -0.3974    3.2696 H   0  0  0  0  0  0  0  0  0  0  0  0
    2.2098   -1.8599    3.1642 H   0  0  0  0  0  0  0  0  0  0  0  0
    1.8621    0.7698    1.8147 H   0  0  0  0  0  0  0  0  0  0  0  0
    0.5058    1.7895    0.8552 H   0  0  0  0  0  0  0  0  0  0  0  0
   -1.0564    1.8159   -0.0689 H   0  0  0  0  0  0  0  0  0  0  0  0
   -1.6038   -1.8350    0.1846 H   0  0  0  0  0  0  0  0  0  0  0  0
   -3.5504   -2.1816   -0.8163 H   0  0  0  0  0  0  0  0  0  0  0  0
   -3.8100   -1.0905   -2.2619 H   0  0  0  0  0  0  0  0  0  0  0  0
   -4.6892   -0.8097   -0.7372 H   0  0  0  0  0  0  0  0  0  0  0  0
  1  2  1  0
  1 11  1  0
  1 12  1  0
  1 13  1  0
  2  3  1  0
  2 14  1  0
  3  4  2  0
  3  5  1  0
  5  6  2  3
  5  7  1  0
  6 15  1  0
  6 16  1  0
  7  8  1  0
  7 17  1  0
  8  9  1  0
  8 10  2  0
  9 18  1  0
  9 19  1  0
  9 20  1  0
M  END

> <RosettaParamsInstructions>
M  ROOT 7
M  POLY_N_BB 7
M  POLY_CA_BB 5
M  POLY_C_BB 3
M  POLY_O_BB 4
M  POLY_IGNORE 1 10 9 14 11 12 13 18 19 20
M  POLY_UPPER 2
M  POLY_LOWER 8
M  POLY_CHG 0
M  POLY_PROPERTIES PROTEIN POLYMER ALPHA_AA ALIPHATIC
M  END

$$$$
DHA_new
     RDKit          3D

 20 19  0  0  0  0  0  0  0  0999 V2000
    2.6710   -1.0385    2.5835 C   0  0  0  0  0  0  0  0  0  0  0  0
    1.7116   -0.2184    1.8145 N   0  0  0  0  0  0  0  0  0  0  0  0
    0.5685   -0.8405    1.3368 C   0  0  0  0  0  0  0  0  0  0  0  0
    0.3603   -2.0818    1.5591 O   0  0  0  0  0  0  0  0  0  0  0  0
   -0.4477   -0.1113    0.5604 C   0  0  0  0  0  0  0  0  0  0  0  0
   -0.2439    1.1582    0.3278 C   0  0  0  0  0  0  0  0  0  0  0  0
   -1.5928   -0.7819    0.0949 N   0  0  0  0  0  0  0  0  0  0  0  0
   -2.6455   -0.2422   -0.6502 C   0  0  0  0  0  0  0  0  0  0  0  0
   -3.8161   -1.1192   -1.0734 C   0  0  0  0  0  0  0  0  0  0  0  0
   -2.7722    0.9396   -1.0461 O   0  0  0  0  0  0  0  0  0  0  0  0
    3.3819   -1.4374    1.8504 H   0  0  0  0  0  0  0  0  0  0  0  0
    2.1053   -1.8481    3.0877 H   0  0  0  0  0  0  0  0  0  0  0  0
    3.1791   -0.4348    3.3405 H   0  0  0  0  0  0  0  0  0  0  0  0
    1.9909    0.7574    1.7053 H   0  0  0  0  0  0  0  0  0  0  0  0
    0.6515    1.6698    0.6954 H   0  0  0  0  0  0  0  0  0  0  0  0
   -0.9245    1.7912   -0.2318 H   0  0  0  0  0  0  0  0  0  0  0  0
   -1.6632   -1.8158    0.3385 H   0  0  0  0  0  0  0  0  0  0  0  0
   -4.7088   -0.9000   -0.4903 H   0  0  0  0  0  0  0  0  0  0  0  0
   -3.4928   -2.1506   -0.8962 H   0  0  0  0  0  0  0  0  0  0  0  0
   -3.9192   -0.9478   -2.1660 H   0  0  0  0  0  0  0  0  0  0  0  0
  1  2  1  0
  1 11  1  0
  1 12  1  0
  1 13  1  0
  2  3  1  0
  2 14  1  0
  3  4  2  0
  3  5  1  0
  5  6  2  3
  5  7  1  0
  6 15  1  0
  6 16  1  0
  7  8  1  0
  7 17  1  0
  8  9  1  0
  8 10  2  0
  9 18  1  0
  9 19  1  0
  9 20  1  0
M  END

> <RosettaParamsInstructions>
M  ROOT 7
M  POLY_N_BB 7
M  POLY_CA_BB 5
M  POLY_C_BB 3
M  POLY_O_BB 4
M  POLY_IGNORE 1 10 9 14 11 12 13 18 19 20
M  POLY_UPPER 2
M  POLY_LOWER 8
M  POLY_CHG 0
M  POLY_PROPERTIES PROTEIN POLYMER ALPHA_AA ALIPHATIC
M  END

$$$$
DHA_new
     RDKit          3D

 20 19  0  0  0  0  0  0  0  0999 V2000
    2.6918   -1.0367    2.5846 C   0  0  0  0  0  0  0  0  0  0  0  0
    1.6980   -0.2348    1.8692 N   0  0  0  0  0  0  0  0  0  0  0  0
    0.5793   -0.8454    1.3131 C   0  0  0  0  0  0  0  0  0  0  0  0
    0.4188   -2.0781    1.4218 O   0  0  0  0  0  0  0  0  0  0  0  0
   -0.4624   -0.0900    0.5773 C   0  0  0  0  0  0  0  0  0  0  0  0
   -0.3315    1.2090    0.4402 C   0  0  0  0  0  0  0  0  0  0  0  0
   -1.5690   -0.7693    0.0395 N   0  0  0  0  0  0  0  0  0  0  0  0
   -2.6324   -0.2520   -0.6699 C   0  0  0  0  0  0  0  0  0  0  0  0
   -3.7567   -1.1281   -1.1856 C   0  0  0  0  0  0  0  0  0  0  0  0
   -2.7664    0.9478   -0.9461 O   0  0  0  0  0  0  0  0  0  0  0  0
    3.0356   -0.4851    3.5043 H   0  0  0  0  0  0  0  0  0  0  0  0
    2.2083   -1.9810    2.8950 H   0  0  0  0  0  0  0  0  0  0  0  0
    3.5385   -1.2959    1.9215 H   0  0  0  0  0  0  0  0  0  0  0  0
    1.9010    0.7828    1.8209 H   0  0  0  0  0  0  0  0  0  0  0  0
    0.5337    1.7455    0.8598 H   0  0  0  0  0  0  0  0  0  0  0  0
   -1.0426    1.8152   -0.0770 H   0  0  0  0  0  0  0  0  0  0  0  0
   -1.5999   -1.8385    0.1974 H   0  0  0  0  0  0  0  0  0  0  0  0
   -3.7828   -2.0061   -0.5033 H   0  0  0  0  0  0  0  0  0  0  0  0
   -3.5496   -1.4973   -2.1930 H   0  0  0  0  0  0  0  0  0  0  0  0
   -4.7181   -0.6142   -1.1289 H   0  0  0  0  0  0  0  0  0  0  0  0
  1  2  1  0
  1 11  1  0
  1 12  1  0
  1 13  1  0
  2  3  1  0
  2 14  1  0
  3  4  2  0
  3  5  1  0
  5  6  2  3
  5  7  1  0
  6 15  1  0
  6 16  1  0
  7  8  1  0
  7 17  1  0
  8  9  1  0
  8 10  2  0
  9 18  1  0
  9 19  1  0
  9 20  1  0
M  END

> <RosettaParamsInstructions>
M  ROOT 7
M  POLY_N_BB 7
M  POLY_CA_BB 5
M  POLY_C_BB 3
M  POLY_O_BB 4
M  POLY_IGNORE 1 10 9 14 11 12 13 18 19 20
M  POLY_UPPER 2
M  POLY_LOWER 8
M  POLY_CHG 0
M  POLY_PROPERTIES PROTEIN POLYMER ALPHA_AA ALIPHATIC
M  END

$$$$
DHA_new
     RDKit          3D

 20 19  0  0  0  0  0  0  0  0999 V2000
    2.6551   -1.0698    2.5654 C   0  0  0  0  0  0  0  0  0  0  0  0
    1.6694   -0.2325    1.8573 N   0  0  0  0  0  0  0  0  0  0  0  0
    0.5580   -0.8540    1.3097 C   0  0  0  0  0  0  0  0  0  0  0  0
    0.4257   -2.1141    1.4346 O   0  0  0  0  0  0  0  0  0  0  0  0
   -0.4731   -0.0848    0.5861 C   0  0  0  0  0  0  0  0  0  0  0  0
   -0.3523    1.1994    0.4505 C   0  0  0  0  0  0  0  0  0  0  0  0
   -1.5729   -0.7932    0.0592 N   0  0  0  0  0  0  0  0  0  0  0  0
   -2.6195   -0.2193   -0.6422 C   0  0  0  0  0  0  0  0  0  0  0  0
   -3.7150   -1.1473   -1.1313 C   0  0  0  0  0  0  0  0  0  0  0  0
   -2.7806    0.9701   -0.9266 O   0  0  0  0  0  0  0  0  0  0  0  0
    3.6487   -0.5955    2.3766 H   0  0  0  0  0  0  0  0  0  0  0  0
    2.6550   -2.0866    2.1252 H   0  0  0  0  0  0  0  0  0  0  0  0
    2.4502   -1.0494    3.6453 H   0  0  0  0  0  0  0  0  0  0  0  0
    1.8326    0.7739    1.7910 H   0  0  0  0  0  0  0  0  0  0  0  0
   -1.0422    1.8527   -0.0559 H   0  0  0  0  0  0  0  0  0  0  0  0
    0.5067    1.7286    0.8659 H   0  0  0  0  0  0  0  0  0  0  0  0
   -1.5994   -1.8412    0.2117 H   0  0  0  0  0  0  0  0  0  0  0  0
   -3.3612   -2.1941   -1.1564 H   0  0  0  0  0  0  0  0  0  0  0  0
   -4.5646   -1.0481   -0.4492 H   0  0  0  0  0  0  0  0  0  0  0  0
   -3.9270   -0.8469   -2.1762 H   0  0  0  0  0  0  0  0  0  0  0  0
  1  2  1  0
  1 11  1  0
  1 12  1  0
  1 13  1  0
  2  3  1  0
  2 14  1  0
  3  4  2  0
  3  5  1  0
  5  6  2  3
  5  7  1  0
  6 15  1  0
  6 16  1  0
  7  8  1  0
  7 17  1  0
  8  9  1  0
  8 10  2  0
  9 18  1  0
  9 19  1  0
  9 20  1  0
M  END

> <RosettaParamsInstructions>
M  ROOT 7
M  POLY_N_BB 7
M  POLY_CA_BB 5
M  POLY_C_BB 3
M  POLY_O_BB 4
M  POLY_IGNORE 1 10 9 14 11 12 13 18 19 20
M  POLY_UPPER 2
M  POLY_LOWER 8
M  POLY_CHG 0
M  POLY_PROPERTIES PROTEIN POLYMER ALPHA_AA ALIPHATIC
M  END

$$$$
DHA_new
     RDKit          3D

 20 19  0  0  0  0  0  0  0  0999 V2000
    2.6965   -1.0519    2.5873 C   0  0  0  0  0  0  0  0  0  0  0  0
    1.7183   -0.2227    1.8745 N   0  0  0  0  0  0  0  0  0  0  0  0
    0.5884   -0.8257    1.3194 C   0  0  0  0  0  0  0  0  0  0  0  0
    0.4221   -2.0815    1.4381 O   0  0  0  0  0  0  0  0  0  0  0  0
   -0.4571   -0.0726    0.5805 C   0  0  0  0  0  0  0  0  0  0  0  0
   -0.3232    1.2230    0.4360 C   0  0  0  0  0  0  0  0  0  0  0  0
   -1.5653   -0.7565    0.0519 N   0  0  0  0  0  0  0  0  0  0  0  0
   -2.6542   -0.2462   -0.6706 C   0  0  0  0  0  0  0  0  0  0  0  0
   -3.7537   -1.1666   -1.1535 C   0  0  0  0  0  0  0  0  0  0  0  0
   -2.8521    0.9539   -0.9921 O   0  0  0  0  0  0  0  0  0  0  0  0
    3.0348   -0.4970    3.4760 H   0  0  0  0  0  0  0  0  0  0  0  0
    2.1892   -1.9942    2.9101 H   0  0  0  0  0  0  0  0  0  0  0  0
    3.5260   -1.3169    1.9191 H   0  0  0  0  0  0  0  0  0  0  0  0
    1.9470    0.7802    1.8356 H   0  0  0  0  0  0  0  0  0  0  0  0
   -1.0461    1.8090   -0.0861 H   0  0  0  0  0  0  0  0  0  0  0  0
    0.5544    1.7287    0.8608 H   0  0  0  0  0  0  0  0  0  0  0  0
   -1.5769   -1.8111    0.2263 H   0  0  0  0  0  0  0  0  0  0  0  0
   -4.6503   -0.9740   -0.5570 H   0  0  0  0  0  0  0  0  0  0  0  0
   -3.4507   -2.2131   -1.1006 H   0  0  0  0  0  0  0  0  0  0  0  0
   -3.9533   -0.9168   -2.2147 H   0  0  0  0  0  0  0  0  0  0  0  0
  1  2  1  0
  1 11  1  0
  1 12  1  0
  1 13  1  0
  2  3  1  0
  2 14  1  0
  3  4  2  0
  3  5  1  0
  5  6  2  3
  5  7  1  0
  6 15  1  0
  6 16  1  0
  7  8  1  0
  7 17  1  0
  8  9  1  0
  8 10  2  0
  9 18  1  0
  9 19  1  0
  9 20  1  0
M  END

> <RosettaParamsInstructions>
M  ROOT 7
M  POLY_N_BB 7
M  POLY_CA_BB 5
M  POLY_C_BB 3
M  POLY_O_BB 4
M  POLY_IGNORE 1 10 9 14 11 12 13 18 19 20
M  POLY_UPPER 2
M  POLY_LOWER 8
M  POLY_CHG 0
M  POLY_PROPERTIES PROTEIN POLYMER ALPHA_AA ALIPHATIC
M  END

$$$$
DHA_new
     RDKit          3D

 20 19  0  0  0  0  0  0  0  0999 V2000
    2.7120   -1.0823    2.5858 C   0  0  0  0  0  0  0  0  0  0  0  0
    1.7127   -0.2678    1.8777 N   0  0  0  0  0  0  0  0  0  0  0  0
    0.5814   -0.8351    1.3056 C   0  0  0  0  0  0  0  0  0  0  0  0
    0.4315   -2.1011    1.4134 O   0  0  0  0  0  0  0  0  0  0  0  0
   -0.4479   -0.0855    0.5901 C   0  0  0  0  0  0  0  0  0  0  0  0
   -0.3374    1.2137    0.4543 C   0  0  0  0  0  0  0  0  0  0  0  0
   -1.5703   -0.7616    0.0399 N   0  0  0  0  0  0  0  0  0  0  0  0
   -2.6528   -0.2601   -0.6684 C   0  0  0  0  0  0  0  0  0  0  0  0
   -3.7611   -1.1482   -1.1777 C   0  0  0  0  0  0  0  0  0  0  0  0
   -2.8167    0.9490   -0.9502 O   0  0  0  0  0  0  0  0  0  0  0  0
    3.7103   -0.7260    2.2584 H   0  0  0  0  0  0  0  0  0  0  0  0
    2.6109   -0.7974    3.6624 H   0  0  0  0  0  0  0  0  0  0  0  0
    2.5200   -2.1389    2.3886 H   0  0  0  0  0  0  0  0  0  0  0  0
    1.8964    0.7470    1.8284 H   0  0  0  0  0  0  0  0  0  0  0  0
   -1.0512    1.8440   -0.0590 H   0  0  0  0  0  0  0  0  0  0  0  0
    0.5456    1.7077    0.8930 H   0  0  0  0  0  0  0  0  0  0  0  0
   -1.5875   -1.8295    0.1944 H   0  0  0  0  0  0  0  0  0  0  0  0
   -3.6291   -2.1305   -0.7214 H   0  0  0  0  0  0  0  0  0  0  0  0
   -3.7310   -1.1980   -2.2871 H   0  0  0  0  0  0  0  0  0  0  0  0
   -4.7424   -0.7517   -0.8874 H   0  0  0  0  0  0  0  0  0  0  0  0
  1  2  1  0
  1 11  1  0
  1 12  1  0
  1 13  1  0
  2  3  1  0
  2 14  1  0
  3  4  2  0
  3  5  1  0
  5  6  2  3
  5  7  1  0
  6 15  1  0
  6 16  1  0
  7  8  1  0
  7 17  1  0
  8  9  1  0
  8 10  2  0
  9 18  1  0
  9 19  1  0
  9 20  1  0
M  END

> <RosettaParamsInstructions>
M  ROOT 7
M  POLY_N_BB 7
M  POLY_CA_BB 5
M  POLY_C_BB 3
M  POLY_O_BB 4
M  POLY_IGNORE 1 10 9 14 11 12 13 18 19 20
M  POLY_UPPER 2
M  POLY_LOWER 8
M  POLY_CHG 0
M  POLY_PROPERTIES PROTEIN POLYMER ALPHA_AA ALIPHATIC
M  END

$$$$
DHA_new
     RDKit          3D

 20 19  0  0  0  0  0  0  0  0999 V2000
    2.7068   -1.0778    2.5405 C   0  0  0  0  0  0  0  0  0  0  0  0
    1.6999   -0.2323    1.8664 N   0  0  0  0  0  0  0  0  0  0  0  0
    0.5789   -0.8182    1.2875 C   0  0  0  0  0  0  0  0  0  0  0  0
    0.4436   -2.0771    1.3512 O   0  0  0  0  0  0  0  0  0  0  0  0
   -0.4668   -0.0596    0.6007 C   0  0  0  0  0  0  0  0  0  0  0  0
   -0.3522    1.2502    0.5194 C   0  0  0  0  0  0  0  0  0  0  0  0
   -1.5698   -0.7647    0.0456 N   0  0  0  0  0  0  0  0  0  0  0  0
   -2.6562   -0.2461   -0.6376 C   0  0  0  0  0  0  0  0  0  0  0  0
   -3.7340   -1.1634   -1.1544 C   0  0  0  0  0  0  0  0  0  0  0  0
   -2.8359    0.9593   -0.8765 O   0  0  0  0  0  0  0  0  0  0  0  0
    3.7036   -0.6545    2.3534 H   0  0  0  0  0  0  0  0  0  0  0  0
    2.4305   -1.0525    3.6132 H   0  0  0  0  0  0  0  0  0  0  0  0
    2.6307   -2.0663    2.0787 H   0  0  0  0  0  0  0  0  0  0  0  0
    1.9067    0.7616    1.8741 H   0  0  0  0  0  0  0  0  0  0  0  0
   -1.0733    1.8909    0.0326 H   0  0  0  0  0  0  0  0  0  0  0  0
    0.5157    1.7214    0.9656 H   0  0  0  0  0  0  0  0  0  0  0  0
   -1.5578   -1.8282    0.1721 H   0  0  0  0  0  0  0  0  0  0  0  0
   -3.5374   -2.2114   -0.8193 H   0  0  0  0  0  0  0  0  0  0  0  0
   -4.7077   -0.7976   -0.7998 H   0  0  0  0  0  0  0  0  0  0  0  0
   -3.7317   -1.1857   -2.2723 H   0  0  0  0  0  0  0  0  0  0  0  0
  1  2  1  0
  1 11  1  0
  1 12  1  0
  1 13  1  0
  2  3  1  0
  2 14  1  0
  3  4  2  0
  3  5  1  0
  5  6  2  3
  5  7  1  0
  6 15  1  0
  6 16  1  0
  7  8  1  0
  7 17  1  0
  8  9  1  0
  8 10  2  0
  9 18  1  0
  9 19  1  0
  9 20  1  0
M  END

> <RosettaParamsInstructions>
M  ROOT 7
M  POLY_N_BB 7
M  POLY_CA_BB 5
M  POLY_C_BB 3
M  POLY_O_BB 4
M  POLY_IGNORE 1 10 9 14 11 12 13 18 19 20
M  POLY_UPPER 2
M  POLY_LOWER 8
M  POLY_CHG 0
M  POLY_PROPERTIES PROTEIN POLYMER ALPHA_AA ALIPHATIC
M  END

$$$$
DHA_new
     RDKit          3D

 20 19  0  0  0  0  0  0  0  0999 V2000
    2.6154   -1.0339    2.6621 C   0  0  0  0  0  0  0  0  0  0  0  0
    1.6751   -0.2212    1.8670 N   0  0  0  0  0  0  0  0  0  0  0  0
    0.5421   -0.8469    1.3656 C   0  0  0  0  0  0  0  0  0  0  0  0
    0.3150   -2.0797    1.5803 O   0  0  0  0  0  0  0  0  0  0  0  0
   -0.4484   -0.0904    0.5564 C   0  0  0  0  0  0  0  0  0  0  0  0
   -0.2449    1.1828    0.3161 C   0  0  0  0  0  0  0  0  0  0  0  0
   -1.5825   -0.7819    0.0731 N   0  0  0  0  0  0  0  0  0  0  0  0
   -2.6079   -0.2430   -0.6951 C   0  0  0  0  0  0  0  0  0  0  0  0
   -3.7619   -1.1302   -1.1346 C   0  0  0  0  0  0  0  0  0  0  0  0
   -2.7112    0.9329   -1.0918 O   0  0  0  0  0  0  0  0  0  0  0  0
    2.0578   -1.8579    3.1418 H   0  0  0  0  0  0  0  0  0  0  0  0
    3.1131   -0.4290    3.4360 H   0  0  0  0  0  0  0  0  0  0  0  0
    3.4015   -1.4097    1.9726 H   0  0  0  0  0  0  0  0  0  0  0  0
    1.9041    0.7653    1.7235 H   0  0  0  0  0  0  0  0  0  0  0  0
    0.6426    1.7020    0.7005 H   0  0  0  0  0  0  0  0  0  0  0  0
   -0.9231    1.7679   -0.2571 H   0  0  0  0  0  0  0  0  0  0  0  0
   -1.6460   -1.8158    0.3292 H   0  0  0  0  0  0  0  0  0  0  0  0
   -3.9248   -0.9125   -2.2113 H   0  0  0  0  0  0  0  0  0  0  0  0
   -3.3870   -2.1686   -1.0914 H   0  0  0  0  0  0  0  0  0  0  0  0
   -4.6356   -0.9825   -0.5022 H   0  0  0  0  0  0  0  0  0  0  0  0
  1  2  1  0
  1 11  1  0
  1 12  1  0
  1 13  1  0
  2  3  1  0
  2 14  1  0
  3  4  2  0
  3  5  1  0
  5  6  2  3
  5  7  1  0
  6 15  1  0
  6 16  1  0
  7  8  1  0
  7 17  1  0
  8  9  1  0
  8 10  2  0
  9 18  1  0
  9 19  1  0
  9 20  1  0
M  END

> <RosettaParamsInstructions>
M  ROOT 7
M  POLY_N_BB 7
M  POLY_CA_BB 5
M  POLY_C_BB 3
M  POLY_O_BB 4
M  POLY_IGNORE 1 10 9 14 11 12 13 18 19 20
M  POLY_UPPER 2
M  POLY_LOWER 8
M  POLY_CHG 0
M  POLY_PROPERTIES PROTEIN POLYMER ALPHA_AA ALIPHATIC
M  END

$$$$
DHA_new
     RDKit          3D

 20 19  0  0  0  0  0  0  0  0999 V2000
    2.6589   -1.0517    2.5858 C   0  0  0  0  0  0  0  0  0  0  0  0
    1.6794   -0.2059    1.8867 N   0  0  0  0  0  0  0  0  0  0  0  0
    0.5757   -0.8293    1.3154 C   0  0  0  0  0  0  0  0  0  0  0  0
    0.4077   -2.0824    1.3876 O   0  0  0  0  0  0  0  0  0  0  0  0
   -0.4455   -0.0515    0.6008 C   0  0  0  0  0  0  0  0  0  0  0  0
   -0.3182    1.2487    0.4979 C   0  0  0  0  0  0  0  0  0  0  0  0
   -1.5661   -0.7502    0.0299 N   0  0  0  0  0  0  0  0  0  0  0  0
   -2.6380   -0.2425   -0.6777 C   0  0  0  0  0  0  0  0  0  0  0  0
   -3.7142   -1.1708   -1.1906 C   0  0  0  0  0  0  0  0  0  0  0  0
   -2.8054    0.9495   -0.9412 O   0  0  0  0  0  0  0  0  0  0  0  0
    3.6322   -0.5318    2.6986 H   0  0  0  0  0  0  0  0  0  0  0  0
    2.8500   -1.9321    1.9325 H   0  0  0  0  0  0  0  0  0  0  0  0
    2.2165   -1.3730    3.5457 H   0  0  0  0  0  0  0  0  0  0  0  0
    1.8885    0.8025    1.8726 H   0  0  0  0  0  0  0  0  0  0  0  0
    0.5428    1.7772    0.9377 H   0  0  0  0  0  0  0  0  0  0  0  0
   -1.0537    1.8368   -0.0206 H   0  0  0  0  0  0  0  0  0  0  0  0
   -1.5667   -1.8171    0.1762 H   0  0  0  0  0  0  0  0  0  0  0  0
   -3.3045   -2.2001   -1.3088 H   0  0  0  0  0  0  0  0  0  0  0  0
   -4.5262   -1.1962   -0.4401 H   0  0  0  0  0  0  0  0  0  0  0  0
   -4.1197   -0.8321   -2.1475 H   0  0  0  0  0  0  0  0  0  0  0  0
  1  2  1  0
  1 11  1  0
  1 12  1  0
  1 13  1  0
  2  3  1  0
  2 14  1  0
  3  4  2  0
  3  5  1  0
  5  6  2  3
  5  7  1  0
  6 15  1  0
  6 16  1  0
  7  8  1  0
  7 17  1  0
  8  9  1  0
  8 10  2  0
  9 18  1  0
  9 19  1  0
  9 20  1  0
M  END

> <RosettaParamsInstructions>
M  ROOT 7
M  POLY_N_BB 7
M  POLY_CA_BB 5
M  POLY_C_BB 3
M  POLY_O_BB 4
M  POLY_IGNORE 1 10 9 14 11 12 13 18 19 20
M  POLY_UPPER 2
M  POLY_LOWER 8
M  POLY_CHG 0
M  POLY_PROPERTIES PROTEIN POLYMER ALPHA_AA ALIPHATIC
M  END

$$$$
DHA_new
     RDKit          3D

 20 19  0  0  0  0  0  0  0  0999 V2000
    2.7148   -1.0505    2.4943 C   0  0  0  0  0  0  0  0  0  0  0  0
    1.6881   -0.2163    1.8480 N   0  0  0  0  0  0  0  0  0  0  0  0
    0.5822   -0.8500    1.2613 C   0  0  0  0  0  0  0  0  0  0  0  0
    0.4985   -2.1033    1.3028 O   0  0  0  0  0  0  0  0  0  0  0  0
   -0.4596   -0.0788    0.6109 C   0  0  0  0  0  0  0  0  0  0  0  0
   -0.3766    1.2204    0.5657 C   0  0  0  0  0  0  0  0  0  0  0  0
   -1.5451   -0.7776    0.0405 N   0  0  0  0  0  0  0  0  0  0  0  0
   -2.6559   -0.2343   -0.6331 C   0  0  0  0  0  0  0  0  0  0  0  0
   -3.7137   -1.1579   -1.1716 C   0  0  0  0  0  0  0  0  0  0  0  0
   -2.8694    0.9858   -0.8421 O   0  0  0  0  0  0  0  0  0  0  0  0
    2.1929   -1.9810    2.8641 H   0  0  0  0  0  0  0  0  0  0  0  0
    3.4780   -1.3380    1.7602 H   0  0  0  0  0  0  0  0  0  0  0  0
    3.1309   -0.5420    3.3687 H   0  0  0  0  0  0  0  0  0  0  0  0
    1.8916    0.7954    1.8921 H   0  0  0  0  0  0  0  0  0  0  0  0
   -1.1013    1.8826    0.1043 H   0  0  0  0  0  0  0  0  0  0  0  0
    0.4609    1.7828    1.0041 H   0  0  0  0  0  0  0  0  0  0  0  0
   -1.5724   -1.8565    0.1019 H   0  0  0  0  0  0  0  0  0  0  0  0
   -4.5795   -1.0963   -0.4789 H   0  0  0  0  0  0  0  0  0  0  0  0
   -4.0035   -0.8369   -2.1916 H   0  0  0  0  0  0  0  0  0  0  0  0
   -3.3675   -2.1996   -1.1609 H   0  0  0  0  0  0  0  0  0  0  0  0
  1  2  1  0
  1 11  1  0
  1 12  1  0
  1 13  1  0
  2  3  1  0
  2 14  1  0
  3  4  2  0
  3  5  1  0
  5  6  2  3
  5  7  1  0
  6 15  1  0
  6 16  1  0
  7  8  1  0
  7 17  1  0
  8  9  1  0
  8 10  2  0
  9 18  1  0
  9 19  1  0
  9 20  1  0
M  END

> <RosettaParamsInstructions>
M  ROOT 7
M  POLY_N_BB 7
M  POLY_CA_BB 5
M  POLY_C_BB 3
M  POLY_O_BB 4
M  POLY_IGNORE 1 10 9 14 11 12 13 18 19 20
M  POLY_UPPER 2
M  POLY_LOWER 8
M  POLY_CHG 0
M  POLY_PROPERTIES PROTEIN POLYMER ALPHA_AA ALIPHATIC
M  END

$$$$
DHA_new
     RDKit          3D

 20 19  0  0  0  0  0  0  0  0999 V2000
    2.6829   -1.0449    2.5791 C   0  0  0  0  0  0  0  0  0  0  0  0
    1.6916   -0.2250    1.8585 N   0  0  0  0  0  0  0  0  0  0  0  0
    0.5675   -0.8395    1.3114 C   0  0  0  0  0  0  0  0  0  0  0  0
    0.4198   -2.1018    1.4461 O   0  0  0  0  0  0  0  0  0  0  0  0
   -0.4651   -0.0831    0.5779 C   0  0  0  0  0  0  0  0  0  0  0  0
   -0.2891    1.2176    0.4529 C   0  0  0  0  0  0  0  0  0  0  0  0
   -1.5835   -0.7804    0.0486 N   0  0  0  0  0  0  0  0  0  0  0  0
   -2.6610   -0.2458   -0.6723 C   0  0  0  0  0  0  0  0  0  0  0  0
   -3.7805   -1.1382   -1.1682 C   0  0  0  0  0  0  0  0  0  0  0  0
   -2.8121    0.9587   -0.9709 O   0  0  0  0  0  0  0  0  0  0  0  0
    2.1312   -1.9086    2.9890 H   0  0  0  0  0  0  0  0  0  0  0  0
    3.1264   -0.4720    3.4115 H   0  0  0  0  0  0  0  0  0  0  0  0
    3.5081   -1.3549    1.8982 H   0  0  0  0  0  0  0  0  0  0  0  0
    1.9453    0.7816    1.8299 H   0  0  0  0  0  0  0  0  0  0  0  0
    0.5864    1.7098    0.8767 H   0  0  0  0  0  0  0  0  0  0  0  0
   -1.0172    1.8374   -0.0794 H   0  0  0  0  0  0  0  0  0  0  0  0
   -1.5869   -1.8349    0.2310 H   0  0  0  0  0  0  0  0  0  0  0  0
   -3.6819   -2.1446   -0.7022 H   0  0  0  0  0  0  0  0  0  0  0  0
   -3.6219   -1.2725   -2.2565 H   0  0  0  0  0  0  0  0  0  0  0  0
   -4.7667   -0.7111   -0.9202 H   0  0  0  0  0  0  0  0  0  0  0  0
  1  2  1  0
  1 11  1  0
  1 12  1  0
  1 13  1  0
  2  3  1  0
  2 14  1  0
  3  4  2  0
  3  5  1  0
  5  6  2  3
  5  7  1  0
  6 15  1  0
  6 16  1  0
  7  8  1  0
  7 17  1  0
  8  9  1  0
  8 10  2  0
  9 18  1  0
  9 19  1  0
  9 20  1  0
M  END

> <RosettaParamsInstructions>
M  ROOT 7
M  POLY_N_BB 7
M  POLY_CA_BB 5
M  POLY_C_BB 3
M  POLY_O_BB 4
M  POLY_IGNORE 1 10 9 14 11 12 13 18 19 20
M  POLY_UPPER 2
M  POLY_LOWER 8
M  POLY_CHG 0
M  POLY_PROPERTIES PROTEIN POLYMER ALPHA_AA ALIPHATIC
M  END

$$$$
DHA_new
     RDKit          3D

 20 19  0  0  0  0  0  0  0  0999 V2000
    2.6803   -1.0275    2.6124 C   0  0  0  0  0  0  0  0  0  0  0  0
    1.6749   -0.2431    1.8761 N   0  0  0  0  0  0  0  0  0  0  0  0
    0.5482   -0.8541    1.3232 C   0  0  0  0  0  0  0  0  0  0  0  0
    0.3938   -2.0927    1.4583 O   0  0  0  0  0  0  0  0  0  0  0  0
   -0.4719   -0.1144    0.5864 C   0  0  0  0  0  0  0  0  0  0  0  0
   -0.2855    1.1842    0.4593 C   0  0  0  0  0  0  0  0  0  0  0  0
   -1.5946   -0.7874    0.0471 N   0  0  0  0  0  0  0  0  0  0  0  0
   -2.6395   -0.2337   -0.6703 C   0  0  0  0  0  0  0  0  0  0  0  0
   -3.7628   -1.1302   -1.1693 C   0  0  0  0  0  0  0  0  0  0  0  0
   -2.7988    0.9667   -0.9834 O   0  0  0  0  0  0  0  0  0  0  0  0
    2.2413   -1.9994    2.8967 H   0  0  0  0  0  0  0  0  0  0  0  0
    3.4867   -1.2421    1.8872 H   0  0  0  0  0  0  0  0  0  0  0  0
    3.0980   -0.4631    3.4498 H   0  0  0  0  0  0  0  0  0  0  0  0
    1.9051    0.7732    1.8264 H   0  0  0  0  0  0  0  0  0  0  0  0
    0.5610    1.7257    0.8597 H   0  0  0  0  0  0  0  0  0  0  0  0
   -1.0060    1.7788   -0.0742 H   0  0  0  0  0  0  0  0  0  0  0  0
   -1.6162   -1.8453    0.2276 H   0  0  0  0  0  0  0  0  0  0  0  0
   -4.7134   -0.5838   -1.1158 H   0  0  0  0  0  0  0  0  0  0  0  0
   -3.7435   -2.0199   -0.5391 H   0  0  0  0  0  0  0  0  0  0  0  0
   -3.5635   -1.4439   -2.2173 H   0  0  0  0  0  0  0  0  0  0  0  0
  1  2  1  0
  1 11  1  0
  1 12  1  0
  1 13  1  0
  2  3  1  0
  2 14  1  0
  3  4  2  0
  3  5  1  0
  5  6  2  3
  5  7  1  0
  6 15  1  0
  6 16  1  0
  7  8  1  0
  7 17  1  0
  8  9  1  0
  8 10  2  0
  9 18  1  0
  9 19  1  0
  9 20  1  0
M  END

> <RosettaParamsInstructions>
M  ROOT 7
M  POLY_N_BB 7
M  POLY_CA_BB 5
M  POLY_C_BB 3
M  POLY_O_BB 4
M  POLY_IGNORE 1 10 9 14 11 12 13 18 19 20
M  POLY_UPPER 2
M  POLY_LOWER 8
M  POLY_CHG 0
M  POLY_PROPERTIES PROTEIN POLYMER ALPHA_AA ALIPHATIC
M  END

$$$$
DHA_new
     RDKit          3D

 20 19  0  0  0  0  0  0  0  0999 V2000
    2.6698   -1.0651    2.5580 C   0  0  0  0  0  0  0  0  0  0  0  0
    1.6815   -0.2218    1.8485 N   0  0  0  0  0  0  0  0  0  0  0  0
    0.5715   -0.8615    1.3057 C   0  0  0  0  0  0  0  0  0  0  0  0
    0.4432   -2.1037    1.4302 O   0  0  0  0  0  0  0  0  0  0  0  0
   -0.4605   -0.0837    0.5812 C   0  0  0  0  0  0  0  0  0  0  0  0
   -0.3293    1.2019    0.4516 C   0  0  0  0  0  0  0  0  0  0  0  0
   -1.5680   -0.7790    0.0489 N   0  0  0  0  0  0  0  0  0  0  0  0
   -2.6237   -0.2133   -0.6555 C   0  0  0  0  0  0  0  0  0  0  0  0
   -3.7246   -1.1457   -1.1459 C   0  0  0  0  0  0  0  0  0  0  0  0
   -2.7763    0.9753   -0.9346 O   0  0  0  0  0  0  0  0  0  0  0  0
    3.6753   -0.6614    2.3751 H   0  0  0  0  0  0  0  0  0  0  0  0
    2.4077   -0.9887    3.6244 H   0  0  0  0  0  0  0  0  0  0  0  0
    2.5695   -2.1162    2.2418 H   0  0  0  0  0  0  0  0  0  0  0  0
    1.8766    0.7870    1.8003 H   0  0  0  0  0  0  0  0  0  0  0  0
   -1.0195    1.8406   -0.0520 H   0  0  0  0  0  0  0  0  0  0  0  0
    0.5330    1.7491    0.8651 H   0  0  0  0  0  0  0  0  0  0  0  0
   -1.5808   -1.8323    0.2102 H   0  0  0  0  0  0  0  0  0  0  0  0
   -4.0753   -0.7997   -2.1228 H   0  0  0  0  0  0  0  0  0  0  0  0
   -4.5594   -1.1569   -0.4271 H   0  0  0  0  0  0  0  0  0  0  0  0
   -3.3172   -2.1772   -1.2623 H   0  0  0  0  0  0  0  0  0  0  0  0
  1  2  1  0
  1 11  1  0
  1 12  1  0
  1 13  1  0
  2  3  1  0
  2 14  1  0
  3  4  2  0
  3  5  1  0
  5  6  2  3
  5  7  1  0
  6 15  1  0
  6 16  1  0
  7  8  1  0
  7 17  1  0
  8  9  1  0
  8 10  2  0
  9 18  1  0
  9 19  1  0
  9 20  1  0
M  END

> <RosettaParamsInstructions>
M  ROOT 7
M  POLY_N_BB 7
M  POLY_CA_BB 5
M  POLY_C_BB 3
M  POLY_O_BB 4
M  POLY_IGNORE 1 10 9 14 11 12 13 18 19 20
M  POLY_UPPER 2
M  POLY_LOWER 8
M  POLY_CHG 0
M  POLY_PROPERTIES PROTEIN POLYMER ALPHA_AA ALIPHATIC
M  END

$$$$
DHA_new
     RDKit          3D

 20 19  0  0  0  0  0  0  0  0999 V2000
    2.6280   -1.0422    2.6648 C   0  0  0  0  0  0  0  0  0  0  0  0
    1.6764   -0.2380    1.8732 N   0  0  0  0  0  0  0  0  0  0  0  0
    0.5353   -0.8130    1.3366 C   0  0  0  0  0  0  0  0  0  0  0  0
    0.3133   -2.0607    1.5366 O   0  0  0  0  0  0  0  0  0  0  0  0
   -0.4352   -0.0471    0.5438 C   0  0  0  0  0  0  0  0  0  0  0  0
   -0.2431    1.2265    0.3187 C   0  0  0  0  0  0  0  0  0  0  0  0
   -1.5609   -0.7437    0.0491 N   0  0  0  0  0  0  0  0  0  0  0  0
   -2.6159   -0.2374   -0.7252 C   0  0  0  0  0  0  0  0  0  0  0  0
   -3.7316   -1.1580   -1.1539 C   0  0  0  0  0  0  0  0  0  0  0  0
   -2.7425    0.9417   -1.1179 O   0  0  0  0  0  0  0  0  0  0  0  0
    2.7533   -2.0328    2.1752 H   0  0  0  0  0  0  0  0  0  0  0  0
    3.6013   -0.5358    2.7634 H   0  0  0  0  0  0  0  0  0  0  0  0
    2.2234   -1.2176    3.6645 H   0  0  0  0  0  0  0  0  0  0  0  0
    1.9188    0.7494    1.7554 H   0  0  0  0  0  0  0  0  0  0  0  0
    0.6467    1.7229    0.7244 H   0  0  0  0  0  0  0  0  0  0  0  0
   -0.9459    1.7986   -0.2600 H   0  0  0  0  0  0  0  0  0  0  0  0
   -1.6303   -1.7784    0.2844 H   0  0  0  0  0  0  0  0  0  0  0  0
   -3.5258   -1.6158   -2.1325 H   0  0  0  0  0  0  0  0  0  0  0  0
   -3.7766   -1.9744   -0.4044 H   0  0  0  0  0  0  0  0  0  0  0  0
   -4.6951   -0.5964   -1.1555 H   0  0  0  0  0  0  0  0  0  0  0  0
  1  2  1  0
  1 11  1  0
  1 12  1  0
  1 13  1  0
  2  3  1  0
  2 14  1  0
  3  4  2  0
  3  5  1  0
  5  6  2  3
  5  7  1  0
  6 15  1  0
  6 16  1  0
  7  8  1  0
  7 17  1  0
  8  9  1  0
  8 10  2  0
  9 18  1  0
  9 19  1  0
  9 20  1  0
M  END

> <RosettaParamsInstructions>
M  ROOT 7
M  POLY_N_BB 7
M  POLY_CA_BB 5
M  POLY_C_BB 3
M  POLY_O_BB 4
M  POLY_IGNORE 1 10 9 14 11 12 13 18 19 20
M  POLY_UPPER 2
M  POLY_LOWER 8
M  POLY_CHG 0
M  POLY_PROPERTIES PROTEIN POLYMER ALPHA_AA ALIPHATIC
M  END

$$$$
DHA_new
     RDKit          3D

 20 19  0  0  0  0  0  0  0  0999 V2000
    2.7154   -1.0409    2.5508 C   0  0  0  0  0  0  0  0  0  0  0  0
    1.6994   -0.2221    1.8671 N   0  0  0  0  0  0  0  0  0  0  0  0
    0.5968   -0.8414    1.2984 C   0  0  0  0  0  0  0  0  0  0  0  0
    0.4789   -2.0971    1.3743 O   0  0  0  0  0  0  0  0  0  0  0  0
   -0.4678   -0.0982    0.5952 C   0  0  0  0  0  0  0  0  0  0  0  0
   -0.3569    1.2000    0.5104 C   0  0  0  0  0  0  0  0  0  0  0  0
   -1.5628   -0.8049    0.0410 N   0  0  0  0  0  0  0  0  0  0  0  0
   -2.6601   -0.2771   -0.6564 C   0  0  0  0  0  0  0  0  0  0  0  0
   -3.7524   -1.1571   -1.1891 C   0  0  0  0  0  0  0  0  0  0  0  0
   -2.8055    0.9368   -0.8803 O   0  0  0  0  0  0  0  0  0  0  0  0
    3.7085   -0.7989    2.1312 H   0  0  0  0  0  0  0  0  0  0  0  0
    2.7355   -0.8050    3.6360 H   0  0  0  0  0  0  0  0  0  0  0  0
    2.4938   -2.1111    2.4457 H   0  0  0  0  0  0  0  0  0  0  0  0
    1.8603    0.7832    1.8449 H   0  0  0  0  0  0  0  0  0  0  0  0
    0.4912    1.7487    0.9395 H   0  0  0  0  0  0  0  0  0  0  0  0
   -1.0699    1.8345    0.0237 H   0  0  0  0  0  0  0  0  0  0  0  0
   -1.5564   -1.8704    0.1672 H   0  0  0  0  0  0  0  0  0  0  0  0
   -3.5768   -2.2143   -1.0010 H   0  0  0  0  0  0  0  0  0  0  0  0
   -4.6863   -0.8008   -0.6782 H   0  0  0  0  0  0  0  0  0  0  0  0
   -3.8916   -1.0160   -2.2794 H   0  0  0  0  0  0  0  0  0  0  0  0
  1  2  1  0
  1 11  1  0
  1 12  1  0
  1 13  1  0
  2  3  1  0
  2 14  1  0
  3  4  2  0
  3  5  1  0
  5  6  2  3
  5  7  1  0
  6 15  1  0
  6 16  1  0
  7  8  1  0
  7 17  1  0
  8  9  1  0
  8 10  2  0
  9 18  1  0
  9 19  1  0
  9 20  1  0
M  END

> <RosettaParamsInstructions>
M  ROOT 7
M  POLY_N_BB 7
M  POLY_CA_BB 5
M  POLY_C_BB 3
M  POLY_O_BB 4
M  POLY_IGNORE 1 10 9 14 11 12 13 18 19 20
M  POLY_UPPER 2
M  POLY_LOWER 8
M  POLY_CHG 0
M  POLY_PROPERTIES PROTEIN POLYMER ALPHA_AA ALIPHATIC
M  END

$$$$
DHA_new
     RDKit          3D

 20 19  0  0  0  0  0  0  0  0999 V2000
    2.6520   -1.0772    2.5732 C   0  0  0  0  0  0  0  0  0  0  0  0
    1.7113   -0.2707    1.8248 N   0  0  0  0  0  0  0  0  0  0  0  0
    0.5465   -0.8324    1.3099 C   0  0  0  0  0  0  0  0  0  0  0  0
    0.3407   -2.0768    1.5211 O   0  0  0  0  0  0  0  0  0  0  0  0
   -0.4359   -0.0596    0.5466 C   0  0  0  0  0  0  0  0  0  0  0  0
   -0.2447    1.2145    0.3192 C   0  0  0  0  0  0  0  0  0  0  0  0
   -1.5784   -0.7461    0.0773 N   0  0  0  0  0  0  0  0  0  0  0  0
   -2.6437   -0.2199   -0.6682 C   0  0  0  0  0  0  0  0  0  0  0  0
   -3.7753   -1.1517   -1.0667 C   0  0  0  0  0  0  0  0  0  0  0  0
   -2.7730    0.9657   -1.0547 O   0  0  0  0  0  0  0  0  0  0  0  0
    3.4279   -1.4211    1.8593 H   0  0  0  0  0  0  0  0  0  0  0  0
    2.0925   -1.8994    3.0431 H   0  0  0  0  0  0  0  0  0  0  0  0
    3.1035   -0.4634    3.4023 H   0  0  0  0  0  0  0  0  0  0  0  0
    1.9484    0.7204    1.6982 H   0  0  0  0  0  0  0  0  0  0  0  0
   -0.9249    1.8415   -0.2335 H   0  0  0  0  0  0  0  0  0  0  0  0
    0.6522    1.7326    0.6931 H   0  0  0  0  0  0  0  0  0  0  0  0
   -1.6470   -1.7827    0.3118 H   0  0  0  0  0  0  0  0  0  0  0  0
   -3.8754   -1.8990   -0.2374 H   0  0  0  0  0  0  0  0  0  0  0  0
   -3.4745   -1.6367   -2.0256 H   0  0  0  0  0  0  0  0  0  0  0  0
   -4.7087   -0.5904   -1.1527 H   0  0  0  0  0  0  0  0  0  0  0  0
  1  2  1  0
  1 11  1  0
  1 12  1  0
  1 13  1  0
  2  3  1  0
  2 14  1  0
  3  4  2  0
  3  5  1  0
  5  6  2  3
  5  7  1  0
  6 15  1  0
  6 16  1  0
  7  8  1  0
  7 17  1  0
  8  9  1  0
  8 10  2  0
  9 18  1  0
  9 19  1  0
  9 20  1  0
M  END

> <RosettaParamsInstructions>
M  ROOT 7
M  POLY_N_BB 7
M  POLY_CA_BB 5
M  POLY_C_BB 3
M  POLY_O_BB 4
M  POLY_IGNORE 1 10 9 14 11 12 13 18 19 20
M  POLY_UPPER 2
M  POLY_LOWER 8
M  POLY_CHG 0
M  POLY_PROPERTIES PROTEIN POLYMER ALPHA_AA ALIPHATIC
M  END

$$$$
DHA_new
     RDKit          3D

 20 19  0  0  0  0  0  0  0  0999 V2000
    2.6908   -1.0568    2.5763 C   0  0  0  0  0  0  0  0  0  0  0  0
    1.6919   -0.2458    1.8604 N   0  0  0  0  0  0  0  0  0  0  0  0
    0.5769   -0.8495    1.3057 C   0  0  0  0  0  0  0  0  0  0  0  0
    0.4233   -2.0963    1.4179 O   0  0  0  0  0  0  0  0  0  0  0  0
   -0.4680   -0.0959    0.5721 C   0  0  0  0  0  0  0  0  0  0  0  0
   -0.3477    1.2034    0.4319 C   0  0  0  0  0  0  0  0  0  0  0  0
   -1.5701   -0.7759    0.0374 N   0  0  0  0  0  0  0  0  0  0  0  0
   -2.6210   -0.2244   -0.6670 C   0  0  0  0  0  0  0  0  0  0  0  0
   -3.7247   -1.1429   -1.1640 C   0  0  0  0  0  0  0  0  0  0  0  0
   -2.8086    0.9714   -0.9707 O   0  0  0  0  0  0  0  0  0  0  0  0
    3.7061   -0.7476    2.2487 H   0  0  0  0  0  0  0  0  0  0  0  0
    2.5730   -0.8558    3.6760 H   0  0  0  0  0  0  0  0  0  0  0  0
    2.4976   -2.1247    2.3967 H   0  0  0  0  0  0  0  0  0  0  0  0
    1.8985    0.7573    1.8187 H   0  0  0  0  0  0  0  0  0  0  0  0
   -1.0516    1.8204   -0.0800 H   0  0  0  0  0  0  0  0  0  0  0  0
    0.5393    1.7114    0.8686 H   0  0  0  0  0  0  0  0  0  0  0  0
   -1.5862   -1.8322    0.1992 H   0  0  0  0  0  0  0  0  0  0  0  0
   -4.6278   -0.9132   -0.5649 H   0  0  0  0  0  0  0  0  0  0  0  0
   -3.4674   -2.1929   -0.9890 H   0  0  0  0  0  0  0  0  0  0  0  0
   -3.9308   -0.9621   -2.2332 H   0  0  0  0  0  0  0  0  0  0  0  0
  1  2  1  0
  1 11  1  0
  1 12  1  0
  1 13  1  0
  2  3  1  0
  2 14  1  0
  3  4  2  0
  3  5  1  0
  5  6  2  3
  5  7  1  0
  6 15  1  0
  6 16  1  0
  7  8  1  0
  7 17  1  0
  8  9  1  0
  8 10  2  0
  9 18  1  0
  9 19  1  0
  9 20  1  0
M  END

> <RosettaParamsInstructions>
M  ROOT 7
M  POLY_N_BB 7
M  POLY_CA_BB 5
M  POLY_C_BB 3
M  POLY_O_BB 4
M  POLY_IGNORE 1 10 9 14 11 12 13 18 19 20
M  POLY_UPPER 2
M  POLY_LOWER 8
M  POLY_CHG 0
M  POLY_PROPERTIES PROTEIN POLYMER ALPHA_AA ALIPHATIC
M  END

$$$$
DHA_new
     RDKit          3D

 20 19  0  0  0  0  0  0  0  0999 V2000
    2.6756   -1.0552    2.5621 C   0  0  0  0  0  0  0  0  0  0  0  0
    1.6521   -0.2101    1.9025 N   0  0  0  0  0  0  0  0  0  0  0  0
    0.5643   -0.8329    1.2825 C   0  0  0  0  0  0  0  0  0  0  0  0
    0.5044   -2.1058    1.3144 O   0  0  0  0  0  0  0  0  0  0  0  0
   -0.4758   -0.0646    0.6170 C   0  0  0  0  0  0  0  0  0  0  0  0
   -0.3932    1.2370    0.5972 C   0  0  0  0  0  0  0  0  0  0  0  0
   -1.5452   -0.7706    0.0125 N   0  0  0  0  0  0  0  0  0  0  0  0
   -2.6472   -0.2375   -0.6775 C   0  0  0  0  0  0  0  0  0  0  0  0
   -3.6859   -1.1762   -1.2511 C   0  0  0  0  0  0  0  0  0  0  0  0
   -2.8207    0.9758   -0.8463 O   0  0  0  0  0  0  0  0  0  0  0  0
    2.6178   -0.8804    3.6420 H   0  0  0  0  0  0  0  0  0  0  0  0
    3.6697   -0.8203    2.1262 H   0  0  0  0  0  0  0  0  0  0  0  0
    2.4461   -2.1319    2.3878 H   0  0  0  0  0  0  0  0  0  0  0  0
    1.8302    0.8037    1.9553 H   0  0  0  0  0  0  0  0  0  0  0  0
   -1.1084    1.9032    0.1323 H   0  0  0  0  0  0  0  0  0  0  0  0
    0.4356    1.7885    1.0655 H   0  0  0  0  0  0  0  0  0  0  0  0
   -1.5505   -1.8508    0.0670 H   0  0  0  0  0  0  0  0  0  0  0  0
   -3.1577   -2.0524   -1.6690 H   0  0  0  0  0  0  0  0  0  0  0  0
   -4.2741   -0.6555   -2.0373 H   0  0  0  0  0  0  0  0  0  0  0  0
   -4.3437   -1.5164   -0.4419 H   0  0  0  0  0  0  0  0  0  0  0  0
  1  2  1  0
  1 11  1  0
  1 12  1  0
  1 13  1  0
  2  3  1  0
  2 14  1  0
  3  4  2  0
  3  5  1  0
  5  6  2  3
  5  7  1  0
  6 15  1  0
  6 16  1  0
  7  8  1  0
  7 17  1  0
  8  9  1  0
  8 10  2  0
  9 18  1  0
  9 19  1  0
  9 20  1  0
M  END

> <RosettaParamsInstructions>
M  ROOT 7
M  POLY_N_BB 7
M  POLY_CA_BB 5
M  POLY_C_BB 3
M  POLY_O_BB 4
M  POLY_IGNORE 1 10 9 14 11 12 13 18 19 20
M  POLY_UPPER 2
M  POLY_LOWER 8
M  POLY_CHG 0
M  POLY_PROPERTIES PROTEIN POLYMER ALPHA_AA ALIPHATIC
M  END

$$$$
DHA_new
     RDKit          3D

 20 19  0  0  0  0  0  0  0  0999 V2000
    2.6698   -1.0756    2.5812 C   0  0  0  0  0  0  0  0  0  0  0  0
    1.6912   -0.2464    1.8655 N   0  0  0  0  0  0  0  0  0  0  0  0
    0.5702   -0.8570    1.3202 C   0  0  0  0  0  0  0  0  0  0  0  0
    0.4267   -2.1118    1.4574 O   0  0  0  0  0  0  0  0  0  0  0  0
   -0.4526   -0.0894    0.5897 C   0  0  0  0  0  0  0  0  0  0  0  0
   -0.3269    1.1967    0.4366 C   0  0  0  0  0  0  0  0  0  0  0  0
   -1.5805   -0.7689    0.0525 N   0  0  0  0  0  0  0  0  0  0  0  0
   -2.6390   -0.1920   -0.6653 C   0  0  0  0  0  0  0  0  0  0  0  0
   -3.7183   -1.1442   -1.1262 C   0  0  0  0  0  0  0  0  0  0  0  0
   -2.8098    0.9914   -0.9729 O   0  0  0  0  0  0  0  0  0  0  0  0
    2.1422   -1.9368    2.9945 H   0  0  0  0  0  0  0  0  0  0  0  0
    3.1178   -0.4502    3.3705 H   0  0  0  0  0  0  0  0  0  0  0  0
    3.4416   -1.3631    1.8676 H   0  0  0  0  0  0  0  0  0  0  0  0
    1.8766    0.7668    1.7952 H   0  0  0  0  0  0  0  0  0  0  0  0
    0.5326    1.7338    0.8426 H   0  0  0  0  0  0  0  0  0  0  0  0
   -1.0185    1.8432   -0.0798 H   0  0  0  0  0  0  0  0  0  0  0  0
   -1.5943   -1.8318    0.2314 H   0  0  0  0  0  0  0  0  0  0  0  0
   -3.4856   -1.4075   -2.1847 H   0  0  0  0  0  0  0  0  0  0  0  0
   -4.7063   -0.6631   -1.1199 H   0  0  0  0  0  0  0  0  0  0  0  0
   -3.7433   -2.0466   -0.5154 H   0  0  0  0  0  0  0  0  0  0  0  0
  1  2  1  0
  1 11  1  0
  1 12  1  0
  1 13  1  0
  2  3  1  0
  2 14  1  0
  3  4  2  0
  3  5  1  0
  5  6  2  3
  5  7  1  0
  6 15  1  0
  6 16  1  0
  7  8  1  0
  7 17  1  0
  8  9  1  0
  8 10  2  0
  9 18  1  0
  9 19  1  0
  9 20  1  0
M  END

> <RosettaParamsInstructions>
M  ROOT 7
M  POLY_N_BB 7
M  POLY_CA_BB 5
M  POLY_C_BB 3
M  POLY_O_BB 4
M  POLY_IGNORE 1 10 9 14 11 12 13 18 19 20
M  POLY_UPPER 2
M  POLY_LOWER 8
M  POLY_CHG 0
M  POLY_PROPERTIES PROTEIN POLYMER ALPHA_AA ALIPHATIC
M  END

$$$$
DHA_new
     RDKit          3D

 20 19  0  0  0  0  0  0  0  0999 V2000
    2.6931   -1.0357    2.5990 C   0  0  0  0  0  0  0  0  0  0  0  0
    1.6864   -0.2401    1.8764 N   0  0  0  0  0  0  0  0  0  0  0  0
    0.5633   -0.8483    1.3114 C   0  0  0  0  0  0  0  0  0  0  0  0
    0.4282   -2.0992    1.4333 O   0  0  0  0  0  0  0  0  0  0  0  0
   -0.4743   -0.0927    0.5770 C   0  0  0  0  0  0  0  0  0  0  0  0
   -0.3193    1.2110    0.4584 C   0  0  0  0  0  0  0  0  0  0  0  0
   -1.5714   -0.8018    0.0437 N   0  0  0  0  0  0  0  0  0  0  0  0
   -2.6430   -0.2803   -0.6729 C   0  0  0  0  0  0  0  0  0  0  0  0
   -3.7572   -1.1550   -1.1897 C   0  0  0  0  0  0  0  0  0  0  0  0
   -2.7628    0.9208   -0.9374 O   0  0  0  0  0  0  0  0  0  0  0  0
    2.8113   -1.9762    2.0279 H   0  0  0  0  0  0  0  0  0  0  0  0
    3.6627   -0.4989    2.6360 H   0  0  0  0  0  0  0  0  0  0  0  0
    2.3631   -1.2806    3.6113 H   0  0  0  0  0  0  0  0  0  0  0  0
    1.8717    0.7798    1.8214 H   0  0  0  0  0  0  0  0  0  0  0  0
   -1.0105    1.8590   -0.0541 H   0  0  0  0  0  0  0  0  0  0  0  0
    0.5446    1.7414    0.8829 H   0  0  0  0  0  0  0  0  0  0  0  0
   -1.5841   -1.8552    0.2061 H   0  0  0  0  0  0  0  0  0  0  0  0
   -3.9233   -0.8984   -2.2433 H   0  0  0  0  0  0  0  0  0  0  0  0
   -4.6429   -0.8866   -0.5823 H   0  0  0  0  0  0  0  0  0  0  0  0
   -3.5422   -2.2152   -1.0642 H   0  0  0  0  0  0  0  0  0  0  0  0
  1  2  1  0
  1 11  1  0
  1 12  1  0
  1 13  1  0
  2  3  1  0
  2 14  1  0
  3  4  2  0
  3  5  1  0
  5  6  2  3
  5  7  1  0
  6 15  1  0
  6 16  1  0
  7  8  1  0
  7 17  1  0
  8  9  1  0
  8 10  2  0
  9 18  1  0
  9 19  1  0
  9 20  1  0
M  END

> <RosettaParamsInstructions>
M  ROOT 7
M  POLY_N_BB 7
M  POLY_CA_BB 5
M  POLY_C_BB 3
M  POLY_O_BB 4
M  POLY_IGNORE 1 10 9 14 11 12 13 18 19 20
M  POLY_UPPER 2
M  POLY_LOWER 8
M  POLY_CHG 0
M  POLY_PROPERTIES PROTEIN POLYMER ALPHA_AA ALIPHATIC
M  END

$$$$
DHA_new
     RDKit          3D

 20 19  0  0  0  0  0  0  0  0999 V2000
    2.7043   -1.0547    2.6010 C   0  0  0  0  0  0  0  0  0  0  0  0
    1.7160   -0.2426    1.8639 N   0  0  0  0  0  0  0  0  0  0  0  0
    0.5667   -0.8289    1.3086 C   0  0  0  0  0  0  0  0  0  0  0  0
    0.4031   -2.0868    1.4613 O   0  0  0  0  0  0  0  0  0  0  0  0
   -0.4472   -0.0804    0.5690 C   0  0  0  0  0  0  0  0  0  0  0  0
   -0.2861    1.2106    0.4083 C   0  0  0  0  0  0  0  0  0  0  0  0
   -1.5697   -0.7982    0.0554 N   0  0  0  0  0  0  0  0  0  0  0  0
   -2.6411   -0.2527   -0.6777 C   0  0  0  0  0  0  0  0  0  0  0  0
   -3.7659   -1.1587   -1.1555 C   0  0  0  0  0  0  0  0  0  0  0  0
   -2.7993    0.9431   -1.0060 O   0  0  0  0  0  0  0  0  0  0  0  0
    3.7194   -0.9206    2.1746 H   0  0  0  0  0  0  0  0  0  0  0  0
    2.4294   -2.1104    2.4789 H   0  0  0  0  0  0  0  0  0  0  0  0
    2.6295   -0.7325    3.6599 H   0  0  0  0  0  0  0  0  0  0  0  0
    1.9017    0.7703    1.7724 H   0  0  0  0  0  0  0  0  0  0  0  0
   -0.9906    1.8523   -0.1296 H   0  0  0  0  0  0  0  0  0  0  0  0
    0.5739    1.7337    0.8072 H   0  0  0  0  0  0  0  0  0  0  0  0
   -1.5995   -1.8495    0.2454 H   0  0  0  0  0  0  0  0  0  0  0  0
   -3.4208   -2.2141   -1.1738 H   0  0  0  0  0  0  0  0  0  0  0  0
   -4.5693   -1.0213   -0.3990 H   0  0  0  0  0  0  0  0  0  0  0  0
   -4.1610   -0.8107   -2.1233 H   0  0  0  0  0  0  0  0  0  0  0  0
  1  2  1  0
  1 11  1  0
  1 12  1  0
  1 13  1  0
  2  3  1  0
  2 14  1  0
  3  4  2  0
  3  5  1  0
  5  6  2  3
  5  7  1  0
  6 15  1  0
  6 16  1  0
  7  8  1  0
  7 17  1  0
  8  9  1  0
  8 10  2  0
  9 18  1  0
  9 19  1  0
  9 20  1  0
M  END

> <RosettaParamsInstructions>
M  ROOT 7
M  POLY_N_BB 7
M  POLY_CA_BB 5
M  POLY_C_BB 3
M  POLY_O_BB 4
M  POLY_IGNORE 1 10 9 14 11 12 13 18 19 20
M  POLY_UPPER 2
M  POLY_LOWER 8
M  POLY_CHG 0
M  POLY_PROPERTIES PROTEIN POLYMER ALPHA_AA ALIPHATIC
M  END

$$$$
DHA_new
     RDKit          3D

 20 19  0  0  0  0  0  0  0  0999 V2000
    2.6830   -1.0938    2.5324 C   0  0  0  0  0  0  0  0  0  0  0  0
    1.7084   -0.2341    1.8272 N   0  0  0  0  0  0  0  0  0  0  0  0
    0.5638   -0.8370    1.2844 C   0  0  0  0  0  0  0  0  0  0  0  0
    0.4105   -2.0979    1.4206 O   0  0  0  0  0  0  0  0  0  0  0  0
   -0.4331   -0.0423    0.5781 C   0  0  0  0  0  0  0  0  0  0  0  0
   -0.2763    1.2535    0.4377 C   0  0  0  0  0  0  0  0  0  0  0  0
   -1.5599   -0.7410    0.0623 N   0  0  0  0  0  0  0  0  0  0  0  0
   -2.6478   -0.2324   -0.6450 C   0  0  0  0  0  0  0  0  0  0  0  0
   -3.7475   -1.1722   -1.1027 C   0  0  0  0  0  0  0  0  0  0  0  0
   -2.8441    0.9617   -0.9677 O   0  0  0  0  0  0  0  0  0  0  0  0
    3.5849   -1.1961    1.9095 H   0  0  0  0  0  0  0  0  0  0  0  0
    2.2429   -2.0951    2.7264 H   0  0  0  0  0  0  0  0  0  0  0  0
    2.9169   -0.5449    3.4690 H   0  0  0  0  0  0  0  0  0  0  0  0
    1.9424    0.7737    1.7816 H   0  0  0  0  0  0  0  0  0  0  0  0
   -1.0221    1.8442   -0.0900 H   0  0  0  0  0  0  0  0  0  0  0  0
    0.5920    1.7455    0.8434 H   0  0  0  0  0  0  0  0  0  0  0  0
   -1.5738   -1.7968    0.2413 H   0  0  0  0  0  0  0  0  0  0  0  0
   -4.7026   -0.8500   -0.6105 H   0  0  0  0  0  0  0  0  0  0  0  0
   -3.9009   -1.0907   -2.1957 H   0  0  0  0  0  0  0  0  0  0  0  0
   -3.5432   -2.2065   -0.7612 H   0  0  0  0  0  0  0  0  0  0  0  0
  1  2  1  0
  1 11  1  0
  1 12  1  0
  1 13  1  0
  2  3  1  0
  2 14  1  0
  3  4  2  0
  3  5  1  0
  5  6  2  3
  5  7  1  0
  6 15  1  0
  6 16  1  0
  7  8  1  0
  7 17  1  0
  8  9  1  0
  8 10  2  0
  9 18  1  0
  9 19  1  0
  9 20  1  0
M  END

> <RosettaParamsInstructions>
M  ROOT 7
M  POLY_N_BB 7
M  POLY_CA_BB 5
M  POLY_C_BB 3
M  POLY_O_BB 4
M  POLY_IGNORE 1 10 9 14 11 12 13 18 19 20
M  POLY_UPPER 2
M  POLY_LOWER 8
M  POLY_CHG 0
M  POLY_PROPERTIES PROTEIN POLYMER ALPHA_AA ALIPHATIC
M  END

$$$$
DHA_new
     RDKit          3D

 20 19  0  0  0  0  0  0  0  0999 V2000
    2.7022   -1.0686    2.4975 C   0  0  0  0  0  0  0  0  0  0  0  0
    1.6980   -0.2380    1.8192 N   0  0  0  0  0  0  0  0  0  0  0  0
    0.5564   -0.8357    1.2606 C   0  0  0  0  0  0  0  0  0  0  0  0
    0.4200   -2.1046    1.3587 O   0  0  0  0  0  0  0  0  0  0  0  0
   -0.4746   -0.0465    0.5729 C   0  0  0  0  0  0  0  0  0  0  0  0
   -0.3396    1.2434    0.4711 C   0  0  0  0  0  0  0  0  0  0  0  0
   -1.5859   -0.7501    0.0460 N   0  0  0  0  0  0  0  0  0  0  0  0
   -2.6755   -0.2152   -0.6393 C   0  0  0  0  0  0  0  0  0  0  0  0
   -3.7483   -1.1688   -1.1102 C   0  0  0  0  0  0  0  0  0  0  0  0
   -2.8228    1.0008   -0.8895 O   0  0  0  0  0  0  0  0  0  0  0  0
    2.4648   -2.1535    2.3839 H   0  0  0  0  0  0  0  0  0  0  0  0
    2.6846   -0.8470    3.5810 H   0  0  0  0  0  0  0  0  0  0  0  0
    3.7037   -0.8852    2.1037 H   0  0  0  0  0  0  0  0  0  0  0  0
    1.9072    0.7767    1.7969 H   0  0  0  0  0  0  0  0  0  0  0  0
   -1.0638    1.8458   -0.0186 H   0  0  0  0  0  0  0  0  0  0  0  0
    0.5417    1.7479    0.8964 H   0  0  0  0  0  0  0  0  0  0  0  0
   -1.6069   -1.8139    0.1808 H   0  0  0  0  0  0  0  0  0  0  0  0
   -3.8273   -1.9470   -0.3381 H   0  0  0  0  0  0  0  0  0  0  0  0
   -4.6961   -0.6031   -1.1495 H   0  0  0  0  0  0  0  0  0  0  0  0
   -3.4443   -1.5894   -2.0827 H   0  0  0  0  0  0  0  0  0  0  0  0
  1  2  1  0
  1 11  1  0
  1 12  1  0
  1 13  1  0
  2  3  1  0
  2 14  1  0
  3  4  2  0
  3  5  1  0
  5  6  2  3
  5  7  1  0
  6 15  1  0
  6 16  1  0
  7  8  1  0
  7 17  1  0
  8  9  1  0
  8 10  2  0
  9 18  1  0
  9 19  1  0
  9 20  1  0
M  END

> <RosettaParamsInstructions>
M  ROOT 7
M  POLY_N_BB 7
M  POLY_CA_BB 5
M  POLY_C_BB 3
M  POLY_O_BB 4
M  POLY_IGNORE 1 10 9 14 11 12 13 18 19 20
M  POLY_UPPER 2
M  POLY_LOWER 8
M  POLY_CHG 0
M  POLY_PROPERTIES PROTEIN POLYMER ALPHA_AA ALIPHATIC
M  END

$$$$
DHA_new
     RDKit          3D

 20 19  0  0  0  0  0  0  0  0999 V2000
    2.6336   -1.0313    2.6664 C   0  0  0  0  0  0  0  0  0  0  0  0
    1.6905   -0.1902    1.9173 N   0  0  0  0  0  0  0  0  0  0  0  0
    0.5715   -0.7990    1.3506 C   0  0  0  0  0  0  0  0  0  0  0  0
    0.3954   -2.0473    1.4928 O   0  0  0  0  0  0  0  0  0  0  0  0
   -0.4530   -0.0695    0.5735 C   0  0  0  0  0  0  0  0  0  0  0  0
   -0.2845    1.2275    0.4165 C   0  0  0  0  0  0  0  0  0  0  0  0
   -1.5555   -0.7880    0.0394 N   0  0  0  0  0  0  0  0  0  0  0  0
   -2.6167   -0.2709   -0.7177 C   0  0  0  0  0  0  0  0  0  0  0  0
   -3.7286   -1.1753   -1.2201 C   0  0  0  0  0  0  0  0  0  0  0  0
   -2.7746    0.9285   -1.0561 O   0  0  0  0  0  0  0  0  0  0  0  0
    2.1191   -1.3422    3.5786 H   0  0  0  0  0  0  0  0  0  0  0  0
    3.5770   -0.5203    2.8670 H   0  0  0  0  0  0  0  0  0  0  0  0
    2.8511   -1.9446    2.0449 H   0  0  0  0  0  0  0  0  0  0  0  0
    1.9605    0.8128    1.8830 H   0  0  0  0  0  0  0  0  0  0  0  0
    0.5845    1.7372    0.8489 H   0  0  0  0  0  0  0  0  0  0  0  0
   -0.9701    1.8545   -0.1315 H   0  0  0  0  0  0  0  0  0  0  0  0
   -1.5873   -1.8318    0.2296 H   0  0  0  0  0  0  0  0  0  0  0  0
   -3.4942   -1.4943   -2.2450 H   0  0  0  0  0  0  0  0  0  0  0  0
   -3.8344   -2.0626   -0.5642 H   0  0  0  0  0  0  0  0  0  0  0  0
   -4.6908   -0.6454   -1.2330 H   0  0  0  0  0  0  0  0  0  0  0  0
  1  2  1  0
  1 11  1  0
  1 12  1  0
  1 13  1  0
  2  3  1  0
  2 14  1  0
  3  4  2  0
  3  5  1  0
  5  6  2  3
  5  7  1  0
  6 15  1  0
  6 16  1  0
  7  8  1  0
  7 17  1  0
  8  9  1  0
  8 10  2  0
  9 18  1  0
  9 19  1  0
  9 20  1  0
M  END

> <RosettaParamsInstructions>
M  ROOT 7
M  POLY_N_BB 7
M  POLY_CA_BB 5
M  POLY_C_BB 3
M  POLY_O_BB 4
M  POLY_IGNORE 1 10 9 14 11 12 13 18 19 20
M  POLY_UPPER 2
M  POLY_LOWER 8
M  POLY_CHG 0
M  POLY_PROPERTIES PROTEIN POLYMER ALPHA_AA ALIPHATIC
M  END

$$$$
DHA_new
     RDKit          3D

 20 19  0  0  0  0  0  0  0  0999 V2000
    2.6977   -1.0477    2.5887 C   0  0  0  0  0  0  0  0  0  0  0  0
    1.6924   -0.2659    1.8708 N   0  0  0  0  0  0  0  0  0  0  0  0
    0.5587   -0.8410    1.3038 C   0  0  0  0  0  0  0  0  0  0  0  0
    0.4131   -2.0976    1.4278 O   0  0  0  0  0  0  0  0  0  0  0  0
   -0.4710   -0.0702    0.5735 C   0  0  0  0  0  0  0  0  0  0  0  0
   -0.3288    1.2190    0.4421 C   0  0  0  0  0  0  0  0  0  0  0  0
   -1.5798   -0.7643    0.0409 N   0  0  0  0  0  0  0  0  0  0  0  0
   -2.6517   -0.2294   -0.6748 C   0  0  0  0  0  0  0  0  0  0  0  0
   -3.7474   -1.1470   -1.1625 C   0  0  0  0  0  0  0  0  0  0  0  0
   -2.7747    0.9705   -0.9464 O   0  0  0  0  0  0  0  0  0  0  0  0
    3.5649   -1.1269    1.9100 H   0  0  0  0  0  0  0  0  0  0  0  0
    2.9834   -0.5645    3.5466 H   0  0  0  0  0  0  0  0  0  0  0  0
    2.2338   -2.0236    2.8140 H   0  0  0  0  0  0  0  0  0  0  0  0
    1.8750    0.7455    1.8093 H   0  0  0  0  0  0  0  0  0  0  0  0
   -1.0295    1.8185   -0.0673 H   0  0  0  0  0  0  0  0  0  0  0  0
    0.5440    1.7321    0.8669 H   0  0  0  0  0  0  0  0  0  0  0  0
   -1.6088   -1.8366    0.2024 H   0  0  0  0  0  0  0  0  0  0  0  0
   -4.7331   -0.6775   -0.9848 H   0  0  0  0  0  0  0  0  0  0  0  0
   -3.6980   -2.0932   -0.5861 H   0  0  0  0  0  0  0  0  0  0  0  0
   -3.5465   -1.3523   -2.2341 H   0  0  0  0  0  0  0  0  0  0  0  0
  1  2  1  0
  1 11  1  0
  1 12  1  0
  1 13  1  0
  2  3  1  0
  2 14  1  0
  3  4  2  0
  3  5  1  0
  5  6  2  3
  5  7  1  0
  6 15  1  0
  6 16  1  0
  7  8  1  0
  7 17  1  0
  8  9  1  0
  8 10  2  0
  9 18  1  0
  9 19  1  0
  9 20  1  0
M  END

> <RosettaParamsInstructions>
M  ROOT 7
M  POLY_N_BB 7
M  POLY_CA_BB 5
M  POLY_C_BB 3
M  POLY_O_BB 4
M  POLY_IGNORE 1 10 9 14 11 12 13 18 19 20
M  POLY_UPPER 2
M  POLY_LOWER 8
M  POLY_CHG 0
M  POLY_PROPERTIES PROTEIN POLYMER ALPHA_AA ALIPHATIC
M  END

$$$$
DHA_new
     RDKit          3D

 20 19  0  0  0  0  0  0  0  0999 V2000
    2.6619   -1.0566    2.5741 C   0  0  0  0  0  0  0  0  0  0  0  0
    1.6489   -0.2276    1.9066 N   0  0  0  0  0  0  0  0  0  0  0  0
    0.5618   -0.8316    1.2939 C   0  0  0  0  0  0  0  0  0  0  0  0
    0.4641   -2.0973    1.3231 O   0  0  0  0  0  0  0  0  0  0  0  0
   -0.4797   -0.0595    0.6132 C   0  0  0  0  0  0  0  0  0  0  0  0
   -0.3724    1.2389    0.5875 C   0  0  0  0  0  0  0  0  0  0  0  0
   -1.5570   -0.7708    0.0139 N   0  0  0  0  0  0  0  0  0  0  0  0
   -2.6312   -0.2111   -0.6718 C   0  0  0  0  0  0  0  0  0  0  0  0
   -3.6704   -1.1665   -1.2311 C   0  0  0  0  0  0  0  0  0  0  0  0
   -2.8568    0.9950   -0.8914 O   0  0  0  0  0  0  0  0  0  0  0  0
    2.4571   -1.0697    3.6551 H   0  0  0  0  0  0  0  0  0  0  0  0
    3.6584   -0.6337    2.3216 H   0  0  0  0  0  0  0  0  0  0  0  0
    2.6036   -2.0664    2.1634 H   0  0  0  0  0  0  0  0  0  0  0  0
    1.8110    0.7788    1.9342 H   0  0  0  0  0  0  0  0  0  0  0  0
    0.4638    1.7622    1.0547 H   0  0  0  0  0  0  0  0  0  0  0  0
   -1.1380    1.8273    0.0856 H   0  0  0  0  0  0  0  0  0  0  0  0
   -1.5310   -1.8456    0.1043 H   0  0  0  0  0  0  0  0  0  0  0  0
   -4.4359   -1.3591   -0.4561 H   0  0  0  0  0  0  0  0  0  0  0  0
   -3.1714   -2.1158   -1.4730 H   0  0  0  0  0  0  0  0  0  0  0  0
   -4.0935   -0.7430   -2.1672 H   0  0  0  0  0  0  0  0  0  0  0  0
  1  2  1  0
  1 11  1  0
  1 12  1  0
  1 13  1  0
  2  3  1  0
  2 14  1  0
  3  4  2  0
  3  5  1  0
  5  6  2  3
  5  7  1  0
  6 15  1  0
  6 16  1  0
  7  8  1  0
  7 17  1  0
  8  9  1  0
  8 10  2  0
  9 18  1  0
  9 19  1  0
  9 20  1  0
M  END

> <RosettaParamsInstructions>
M  ROOT 7
M  POLY_N_BB 7
M  POLY_CA_BB 5
M  POLY_C_BB 3
M  POLY_O_BB 4
M  POLY_IGNORE 1 10 9 14 11 12 13 18 19 20
M  POLY_UPPER 2
M  POLY_LOWER 8
M  POLY_CHG 0
M  POLY_PROPERTIES PROTEIN POLYMER ALPHA_AA ALIPHATIC
M  END

$$$$
DHA_new
     RDKit          3D

 20 19  0  0  0  0  0  0  0  0999 V2000
    2.6651   -1.0811    2.5769 C   0  0  0  0  0  0  0  0  0  0  0  0
    1.7088   -0.2610    1.8238 N   0  0  0  0  0  0  0  0  0  0  0  0
    0.5435   -0.8300    1.3060 C   0  0  0  0  0  0  0  0  0  0  0  0
    0.3587   -2.0719    1.5176 O   0  0  0  0  0  0  0  0  0  0  0  0
   -0.4507   -0.0669    0.5458 C   0  0  0  0  0  0  0  0  0  0  0  0
   -0.2651    1.2100    0.3258 C   0  0  0  0  0  0  0  0  0  0  0  0
   -1.5835   -0.7658    0.0797 N   0  0  0  0  0  0  0  0  0  0  0  0
   -2.6305   -0.2119   -0.6571 C   0  0  0  0  0  0  0  0  0  0  0  0
   -3.7632   -1.1313   -1.0669 C   0  0  0  0  0  0  0  0  0  0  0  0
   -2.7526    0.9781   -1.0300 O   0  0  0  0  0  0  0  0  0  0  0  0
    2.5695   -2.1270    2.2580 H   0  0  0  0  0  0  0  0  0  0  0  0
    2.4070   -0.9940    3.6385 H   0  0  0  0  0  0  0  0  0  0  0  0
    3.6879   -0.6668    2.4457 H   0  0  0  0  0  0  0  0  0  0  0  0
    1.9230    0.7367    1.6912 H   0  0  0  0  0  0  0  0  0  0  0  0
   -0.9311    1.8415   -0.2141 H   0  0  0  0  0  0  0  0  0  0  0  0
    0.6326    1.7194    0.7066 H   0  0  0  0  0  0  0  0  0  0  0  0
   -1.6420   -1.7978    0.3096 H   0  0  0  0  0  0  0  0  0  0  0  0
   -4.2563   -0.7625   -1.9721 H   0  0  0  0  0  0  0  0  0  0  0  0
   -4.4964   -1.2424   -0.2468 H   0  0  0  0  0  0  0  0  0  0  0  0
   -3.3312   -2.1273   -1.2974 H   0  0  0  0  0  0  0  0  0  0  0  0
  1  2  1  0
  1 11  1  0
  1 12  1  0
  1 13  1  0
  2  3  1  0
  2 14  1  0
  3  4  2  0
  3  5  1  0
  5  6  2  3
  5  7  1  0
  6 15  1  0
  6 16  1  0
  7  8  1  0
  7 17  1  0
  8  9  1  0
  8 10  2  0
  9 18  1  0
  9 19  1  0
  9 20  1  0
M  END

> <RosettaParamsInstructions>
M  ROOT 7
M  POLY_N_BB 7
M  POLY_CA_BB 5
M  POLY_C_BB 3
M  POLY_O_BB 4
M  POLY_IGNORE 1 10 9 14 11 12 13 18 19 20
M  POLY_UPPER 2
M  POLY_LOWER 8
M  POLY_CHG 0
M  POLY_PROPERTIES PROTEIN POLYMER ALPHA_AA ALIPHATIC
M  END

$$$$
DHA_new
     RDKit          3D

 20 19  0  0  0  0  0  0  0  0999 V2000
    2.7243   -1.0735    2.5067 C   0  0  0  0  0  0  0  0  0  0  0  0
    1.6698   -0.2406    1.9031 N   0  0  0  0  0  0  0  0  0  0  0  0
    0.5931   -0.8198    1.2614 C   0  0  0  0  0  0  0  0  0  0  0  0
    0.5230   -2.0839    1.1978 O   0  0  0  0  0  0  0  0  0  0  0  0
   -0.4858   -0.0610    0.6422 C   0  0  0  0  0  0  0  0  0  0  0  0
   -0.4517    1.2361    0.6852 C   0  0  0  0  0  0  0  0  0  0  0  0
   -1.5547   -0.7402    0.0033 N   0  0  0  0  0  0  0  0  0  0  0  0
   -2.6778   -0.2377   -0.6465 C   0  0  0  0  0  0  0  0  0  0  0  0
   -3.6839   -1.1831   -1.2533 C   0  0  0  0  0  0  0  0  0  0  0  0
   -2.9301    0.9754   -0.7729 O   0  0  0  0  0  0  0  0  0  0  0  0
    2.9203   -0.7581    3.5487 H   0  0  0  0  0  0  0  0  0  0  0  0
    3.6393   -0.8876    1.9289 H   0  0  0  0  0  0  0  0  0  0  0  0
    2.4100   -2.1213    2.5059 H   0  0  0  0  0  0  0  0  0  0  0  0
    1.8175    0.7690    2.0076 H   0  0  0  0  0  0  0  0  0  0  0  0
    0.3847    1.7338    1.1845 H   0  0  0  0  0  0  0  0  0  0  0  0
   -1.2367    1.8124    0.2351 H   0  0  0  0  0  0  0  0  0  0  0  0
   -1.4825   -1.8085    0.0266 H   0  0  0  0  0  0  0  0  0  0  0  0
   -3.6480   -2.1313   -0.7120 H   0  0  0  0  0  0  0  0  0  0  0  0
   -4.7083   -0.7750   -1.1813 H   0  0  0  0  0  0  0  0  0  0  0  0
   -3.4290   -1.2574   -2.3299 H   0  0  0  0  0  0  0  0  0  0  0  0
  1  2  1  0
  1 11  1  0
  1 12  1  0
  1 13  1  0
  2  3  1  0
  2 14  1  0
  3  4  2  0
  3  5  1  0
  5  6  2  3
  5  7  1  0
  6 15  1  0
  6 16  1  0
  7  8  1  0
  7 17  1  0
  8  9  1  0
  8 10  2  0
  9 18  1  0
  9 19  1  0
  9 20  1  0
M  END

> <RosettaParamsInstructions>
M  ROOT 7
M  POLY_N_BB 7
M  POLY_CA_BB 5
M  POLY_C_BB 3
M  POLY_O_BB 4
M  POLY_IGNORE 1 10 9 14 11 12 13 18 19 20
M  POLY_UPPER 2
M  POLY_LOWER 8
M  POLY_CHG 0
M  POLY_PROPERTIES PROTEIN POLYMER ALPHA_AA ALIPHATIC
M  END

$$$$
DHA_new
     RDKit          3D

 20 19  0  0  0  0  0  0  0  0999 V2000
    2.6296   -1.0326    2.6665 C   0  0  0  0  0  0  0  0  0  0  0  0
    1.6570   -0.2473    1.8667 N   0  0  0  0  0  0  0  0  0  0  0  0
    0.5186   -0.8441    1.3417 C   0  0  0  0  0  0  0  0  0  0  0  0
    0.2939   -2.0603    1.5361 O   0  0  0  0  0  0  0  0  0  0  0  0
   -0.4713   -0.0969    0.5418 C   0  0  0  0  0  0  0  0  0  0  0  0
   -0.2450    1.1870    0.3301 C   0  0  0  0  0  0  0  0  0  0  0  0
   -1.6066   -0.7851    0.0435 N   0  0  0  0  0  0  0  0  0  0  0  0
   -2.6154   -0.2433   -0.7121 C   0  0  0  0  0  0  0  0  0  0  0  0
   -3.7514   -1.1521   -1.1512 C   0  0  0  0  0  0  0  0  0  0  0  0
   -2.6801    0.9432   -1.0729 O   0  0  0  0  0  0  0  0  0  0  0  0
    2.1662   -1.9695    3.0292 H   0  0  0  0  0  0  0  0  0  0  0  0
    3.4999   -1.2564    2.0154 H   0  0  0  0  0  0  0  0  0  0  0  0
    2.9827   -0.4162    3.5201 H   0  0  0  0  0  0  0  0  0  0  0  0
    1.9181    0.7498    1.7538 H   0  0  0  0  0  0  0  0  0  0  0  0
    0.6504    1.6882    0.7344 H   0  0  0  0  0  0  0  0  0  0  0  0
   -0.9244    1.7756   -0.2394 H   0  0  0  0  0  0  0  0  0  0  0  0
   -1.6732   -1.8215    0.2845 H   0  0  0  0  0  0  0  0  0  0  0  0
   -3.4462   -1.6594   -2.0955 H   0  0  0  0  0  0  0  0  0  0  0  0
   -3.8783   -1.8823   -0.3410 H   0  0  0  0  0  0  0  0  0  0  0  0
   -4.6309   -0.5290   -1.3108 H   0  0  0  0  0  0  0  0  0  0  0  0
  1  2  1  0
  1 11  1  0
  1 12  1  0
  1 13  1  0
  2  3  1  0
  2 14  1  0
  3  4  2  0
  3  5  1  0
  5  6  2  3
  5  7  1  0
  6 15  1  0
  6 16  1  0
  7  8  1  0
  7 17  1  0
  8  9  1  0
  8 10  2  0
  9 18  1  0
  9 19  1  0
  9 20  1  0
M  END

> <RosettaParamsInstructions>
M  ROOT 7
M  POLY_N_BB 7
M  POLY_CA_BB 5
M  POLY_C_BB 3
M  POLY_O_BB 4
M  POLY_IGNORE 1 10 9 14 11 12 13 18 19 20
M  POLY_UPPER 2
M  POLY_LOWER 8
M  POLY_CHG 0
M  POLY_PROPERTIES PROTEIN POLYMER ALPHA_AA ALIPHATIC
M  END

$$$$
DHA_new
     RDKit          3D

 20 19  0  0  0  0  0  0  0  0999 V2000
    2.7127   -1.0395    2.5762 C   0  0  0  0  0  0  0  0  0  0  0  0
    1.7065   -0.2433    1.8589 N   0  0  0  0  0  0  0  0  0  0  0  0
    0.5785   -0.8469    1.3047 C   0  0  0  0  0  0  0  0  0  0  0  0
    0.4237   -2.1016    1.4244 O   0  0  0  0  0  0  0  0  0  0  0  0
   -0.4652   -0.0948    0.5731 C   0  0  0  0  0  0  0  0  0  0  0  0
   -0.2936    1.2006    0.4563 C   0  0  0  0  0  0  0  0  0  0  0  0
   -1.5720   -0.7768    0.0444 N   0  0  0  0  0  0  0  0  0  0  0  0
   -2.6540   -0.2498   -0.6718 C   0  0  0  0  0  0  0  0  0  0  0  0
   -3.7693   -1.1508   -1.1689 C   0  0  0  0  0  0  0  0  0  0  0  0
   -2.8140    0.9582   -0.9665 O   0  0  0  0  0  0  0  0  0  0  0  0
    3.5357   -1.3140    1.9136 H   0  0  0  0  0  0  0  0  0  0  0  0
    3.0221   -0.4721    3.4671 H   0  0  0  0  0  0  0  0  0  0  0  0
    2.1829   -1.9422    2.9388 H   0  0  0  0  0  0  0  0  0  0  0  0
    1.9089    0.7595    1.8090 H   0  0  0  0  0  0  0  0  0  0  0  0
   -1.0197    1.8256   -0.0697 H   0  0  0  0  0  0  0  0  0  0  0  0
    0.5727    1.7399    0.8693 H   0  0  0  0  0  0  0  0  0  0  0  0
   -1.6106   -1.8365    0.1989 H   0  0  0  0  0  0  0  0  0  0  0  0
   -4.6294   -0.9472   -0.5193 H   0  0  0  0  0  0  0  0  0  0  0  0
   -3.4753   -2.2099   -1.0589 H   0  0  0  0  0  0  0  0  0  0  0  0
   -3.9470   -0.9105   -2.2388 H   0  0  0  0  0  0  0  0  0  0  0  0
  1  2  1  0
  1 11  1  0
  1 12  1  0
  1 13  1  0
  2  3  1  0
  2 14  1  0
  3  4  2  0
  3  5  1  0
  5  6  2  3
  5  7  1  0
  6 15  1  0
  6 16  1  0
  7  8  1  0
  7 17  1  0
  8  9  1  0
  8 10  2  0
  9 18  1  0
  9 19  1  0
  9 20  1  0
M  END

> <RosettaParamsInstructions>
M  ROOT 7
M  POLY_N_BB 7
M  POLY_CA_BB 5
M  POLY_C_BB 3
M  POLY_O_BB 4
M  POLY_IGNORE 1 10 9 14 11 12 13 18 19 20
M  POLY_UPPER 2
M  POLY_LOWER 8
M  POLY_CHG 0
M  POLY_PROPERTIES PROTEIN POLYMER ALPHA_AA ALIPHATIC
M  END

$$$$
DHA_new
     RDKit          3D

 20 19  0  0  0  0  0  0  0  0999 V2000
    2.7063   -1.0497    2.5386 C   0  0  0  0  0  0  0  0  0  0  0  0
    1.6832   -0.2352    1.8664 N   0  0  0  0  0  0  0  0  0  0  0  0
    0.5665   -0.8241    1.2789 C   0  0  0  0  0  0  0  0  0  0  0  0
    0.4455   -2.0736    1.3324 O   0  0  0  0  0  0  0  0  0  0  0  0
   -0.4749   -0.0633    0.6014 C   0  0  0  0  0  0  0  0  0  0  0  0
   -0.3582    1.2291    0.5411 C   0  0  0  0  0  0  0  0  0  0  0  0
   -1.5855   -0.7785    0.0299 N   0  0  0  0  0  0  0  0  0  0  0  0
   -2.6665   -0.2498   -0.6475 C   0  0  0  0  0  0  0  0  0  0  0  0
   -3.7330   -1.1855   -1.1717 C   0  0  0  0  0  0  0  0  0  0  0  0
   -2.8556    0.9586   -0.8763 O   0  0  0  0  0  0  0  0  0  0  0  0
    3.7010   -0.6642    2.2535 H   0  0  0  0  0  0  0  0  0  0  0  0
    2.5934   -1.0418    3.6265 H   0  0  0  0  0  0  0  0  0  0  0  0
    2.5935   -2.0743    2.1596 H   0  0  0  0  0  0  0  0  0  0  0  0
    1.8862    0.7802    1.8834 H   0  0  0  0  0  0  0  0  0  0  0  0
   -1.0901    1.8305    0.0584 H   0  0  0  0  0  0  0  0  0  0  0  0
    0.4955    1.7520    0.9831 H   0  0  0  0  0  0  0  0  0  0  0  0
   -1.5691   -1.8421    0.1446 H   0  0  0  0  0  0  0  0  0  0  0  0
   -3.6174   -2.1849   -0.6915 H   0  0  0  0  0  0  0  0  0  0  0  0
   -4.6975   -0.7106   -0.8983 H   0  0  0  0  0  0  0  0  0  0  0  0
   -3.6297   -1.2248   -2.2716 H   0  0  0  0  0  0  0  0  0  0  0  0
  1  2  1  0
  1 11  1  0
  1 12  1  0
  1 13  1  0
  2  3  1  0
  2 14  1  0
  3  4  2  0
  3  5  1  0
  5  6  2  3
  5  7  1  0
  6 15  1  0
  6 16  1  0
  7  8  1  0
  7 17  1  0
  8  9  1  0
  8 10  2  0
  9 18  1  0
  9 19  1  0
  9 20  1  0
M  END

> <RosettaParamsInstructions>
M  ROOT 7
M  POLY_N_BB 7
M  POLY_CA_BB 5
M  POLY_C_BB 3
M  POLY_O_BB 4
M  POLY_IGNORE 1 10 9 14 11 12 13 18 19 20
M  POLY_UPPER 2
M  POLY_LOWER 8
M  POLY_CHG 0
M  POLY_PROPERTIES PROTEIN POLYMER ALPHA_AA ALIPHATIC
M  END

$$$$
DHA_new
     RDKit          3D

 20 19  0  0  0  0  0  0  0  0999 V2000
    2.7265   -1.0354    2.5585 C   0  0  0  0  0  0  0  0  0  0  0  0
    1.6718   -0.2184    1.8987 N   0  0  0  0  0  0  0  0  0  0  0  0
    0.5864   -0.8511    1.2841 C   0  0  0  0  0  0  0  0  0  0  0  0
    0.5098   -2.1026    1.2933 O   0  0  0  0  0  0  0  0  0  0  0  0
   -0.4873   -0.1121    0.6165 C   0  0  0  0  0  0  0  0  0  0  0  0
   -0.4182    1.1976    0.6003 C   0  0  0  0  0  0  0  0  0  0  0  0
   -1.5607   -0.8145    0.0121 N   0  0  0  0  0  0  0  0  0  0  0  0
   -2.6454   -0.2778   -0.6531 C   0  0  0  0  0  0  0  0  0  0  0  0
   -3.7317   -1.1370   -1.2582 C   0  0  0  0  0  0  0  0  0  0  0  0
   -2.8257    0.9471   -0.8132 O   0  0  0  0  0  0  0  0  0  0  0  0
    2.6128   -0.9383    3.6602 H   0  0  0  0  0  0  0  0  0  0  0  0
    3.7071   -0.6294    2.2623 H   0  0  0  0  0  0  0  0  0  0  0  0
    2.5645   -2.0726    2.2780 H   0  0  0  0  0  0  0  0  0  0  0  0
    1.8706    0.7970    1.9723 H   0  0  0  0  0  0  0  0  0  0  0  0
   -1.1202    1.8610    0.1560 H   0  0  0  0  0  0  0  0  0  0  0  0
    0.4320    1.6808    1.0824 H   0  0  0  0  0  0  0  0  0  0  0  0
   -1.5281   -1.8832    0.0780 H   0  0  0  0  0  0  0  0  0  0  0  0
   -3.3808   -2.1816   -1.2678 H   0  0  0  0  0  0  0  0  0  0  0  0
   -4.6713   -1.0551   -0.7103 H   0  0  0  0  0  0  0  0  0  0  0  0
   -3.9186   -0.8266   -2.3093 H   0  0  0  0  0  0  0  0  0  0  0  0
  1  2  1  0
  1 11  1  0
  1 12  1  0
  1 13  1  0
  2  3  1  0
  2 14  1  0
  3  4  2  0
  3  5  1  0
  5  6  2  3
  5  7  1  0
  6 15  1  0
  6 16  1  0
  7  8  1  0
  7 17  1  0
  8  9  1  0
  8 10  2  0
  9 18  1  0
  9 19  1  0
  9 20  1  0
M  END

> <RosettaParamsInstructions>
M  ROOT 7
M  POLY_N_BB 7
M  POLY_CA_BB 5
M  POLY_C_BB 3
M  POLY_O_BB 4
M  POLY_IGNORE 1 10 9 14 11 12 13 18 19 20
M  POLY_UPPER 2
M  POLY_LOWER 8
M  POLY_CHG 0
M  POLY_PROPERTIES PROTEIN POLYMER ALPHA_AA ALIPHATIC
M  END

$$$$
DHA_new
     RDKit          3D

 20 19  0  0  0  0  0  0  0  0999 V2000
    2.6583   -1.0735    2.5883 C   0  0  0  0  0  0  0  0  0  0  0  0
    1.6765   -0.2656    1.8649 N   0  0  0  0  0  0  0  0  0  0  0  0
    0.5390   -0.8425    1.3076 C   0  0  0  0  0  0  0  0  0  0  0  0
    0.3685   -2.0919    1.4392 O   0  0  0  0  0  0  0  0  0  0  0  0
   -0.4563   -0.0429    0.5788 C   0  0  0  0  0  0  0  0  0  0  0  0
   -0.2814    1.2534    0.4416 C   0  0  0  0  0  0  0  0  0  0  0  0
   -1.5666   -0.7322    0.0593 N   0  0  0  0  0  0  0  0  0  0  0  0
   -2.6422   -0.2062   -0.6638 C   0  0  0  0  0  0  0  0  0  0  0  0
   -3.7208   -1.1693   -1.1133 C   0  0  0  0  0  0  0  0  0  0  0  0
   -2.8328    0.9788   -0.9935 O   0  0  0  0  0  0  0  0  0  0  0  0
    2.1722   -1.9950    2.9964 H   0  0  0  0  0  0  0  0  0  0  0  0
    3.0999   -0.4595    3.3989 H   0  0  0  0  0  0  0  0  0  0  0  0
    3.4368   -1.3373    1.8427 H   0  0  0  0  0  0  0  0  0  0  0  0
    1.8808    0.7326    1.7983 H   0  0  0  0  0  0  0  0  0  0  0  0
    0.5711    1.7661    0.8448 H   0  0  0  0  0  0  0  0  0  0  0  0
   -1.0173    1.8261   -0.0937 H   0  0  0  0  0  0  0  0  0  0  0  0
   -1.5983   -1.7854    0.2346 H   0  0  0  0  0  0  0  0  0  0  0  0
   -3.2555   -2.1842   -1.2280 H   0  0  0  0  0  0  0  0  0  0  0  0
   -4.0598   -0.8766   -2.1192 H   0  0  0  0  0  0  0  0  0  0  0  0
   -4.5785   -1.1470   -0.4431 H   0  0  0  0  0  0  0  0  0  0  0  0
  1  2  1  0
  1 11  1  0
  1 12  1  0
  1 13  1  0
  2  3  1  0
  2 14  1  0
  3  4  2  0
  3  5  1  0
  5  6  2  3
  5  7  1  0
  6 15  1  0
  6 16  1  0
  7  8  1  0
  7 17  1  0
  8  9  1  0
  8 10  2  0
  9 18  1  0
  9 19  1  0
  9 20  1  0
M  END

> <RosettaParamsInstructions>
M  ROOT 7
M  POLY_N_BB 7
M  POLY_CA_BB 5
M  POLY_C_BB 3
M  POLY_O_BB 4
M  POLY_IGNORE 1 10 9 14 11 12 13 18 19 20
M  POLY_UPPER 2
M  POLY_LOWER 8
M  POLY_CHG 0
M  POLY_PROPERTIES PROTEIN POLYMER ALPHA_AA ALIPHATIC
M  END

$$$$
DHA_new
     RDKit          3D

 20 19  0  0  0  0  0  0  0  0999 V2000
    2.7297   -1.0553    2.5146 C   0  0  0  0  0  0  0  0  0  0  0  0
    1.6940   -0.2357    1.8654 N   0  0  0  0  0  0  0  0  0  0  0  0
    0.5843   -0.8511    1.2733 C   0  0  0  0  0  0  0  0  0  0  0  0
    0.4979   -2.1332    1.3127 O   0  0  0  0  0  0  0  0  0  0  0  0
   -0.4766   -0.0846    0.6134 C   0  0  0  0  0  0  0  0  0  0  0  0
   -0.3955    1.2130    0.5699 C   0  0  0  0  0  0  0  0  0  0  0  0
   -1.5831   -0.7492    0.0266 N   0  0  0  0  0  0  0  0  0  0  0  0
   -2.6738   -0.2005   -0.6352 C   0  0  0  0  0  0  0  0  0  0  0  0
   -3.7216   -1.1643   -1.1676 C   0  0  0  0  0  0  0  0  0  0  0  0
   -2.9097    1.0104   -0.8540 O   0  0  0  0  0  0  0  0  0  0  0  0
    3.0036   -0.5768    3.4734 H   0  0  0  0  0  0  0  0  0  0  0  0
    2.3181   -2.0663    2.6731 H   0  0  0  0  0  0  0  0  0  0  0  0
    3.6003   -1.1595    1.8305 H   0  0  0  0  0  0  0  0  0  0  0  0
    1.8547    0.7862    1.8865 H   0  0  0  0  0  0  0  0  0  0  0  0
    0.4387    1.7208    1.0119 H   0  0  0  0  0  0  0  0  0  0  0  0
   -1.1288    1.8565    0.1060 H   0  0  0  0  0  0  0  0  0  0  0  0
   -1.5428   -1.8161    0.1236 H   0  0  0  0  0  0  0  0  0  0  0  0
   -4.5483   -1.2497   -0.4305 H   0  0  0  0  0  0  0  0  0  0  0  0
   -4.0922   -0.7534   -2.1291 H   0  0  0  0  0  0  0  0  0  0  0  0
   -3.2554   -2.1432   -1.3235 H   0  0  0  0  0  0  0  0  0  0  0  0
  1  2  1  0
  1 11  1  0
  1 12  1  0
  1 13  1  0
  2  3  1  0
  2 14  1  0
  3  4  2  0
  3  5  1  0
  5  6  2  3
  5  7  1  0
  6 15  1  0
  6 16  1  0
  7  8  1  0
  7 17  1  0
  8  9  1  0
  8 10  2  0
  9 18  1  0
  9 19  1  0
  9 20  1  0
M  END

> <RosettaParamsInstructions>
M  ROOT 7
M  POLY_N_BB 7
M  POLY_CA_BB 5
M  POLY_C_BB 3
M  POLY_O_BB 4
M  POLY_IGNORE 1 10 9 14 11 12 13 18 19 20
M  POLY_UPPER 2
M  POLY_LOWER 8
M  POLY_CHG 0
M  POLY_PROPERTIES PROTEIN POLYMER ALPHA_AA ALIPHATIC
M  END

$$$$
DHA_new
     RDKit          3D

 20 19  0  0  0  0  0  0  0  0999 V2000
    2.6290   -1.0511    2.6485 C   0  0  0  0  0  0  0  0  0  0  0  0
    1.7070   -0.2376    1.8865 N   0  0  0  0  0  0  0  0  0  0  0  0
    0.5468   -0.7864    1.3321 C   0  0  0  0  0  0  0  0  0  0  0  0
    0.3581   -2.0362    1.5404 O   0  0  0  0  0  0  0  0  0  0  0  0
   -0.4537   -0.0463    0.5418 C   0  0  0  0  0  0  0  0  0  0  0  0
   -0.2779    1.2212    0.3211 C   0  0  0  0  0  0  0  0  0  0  0  0
   -1.5738   -0.7482    0.0509 N   0  0  0  0  0  0  0  0  0  0  0  0
   -2.6212   -0.2309   -0.7101 C   0  0  0  0  0  0  0  0  0  0  0  0
   -3.7309   -1.1633   -1.1356 C   0  0  0  0  0  0  0  0  0  0  0  0
   -2.7386    0.9598   -1.0868 O   0  0  0  0  0  0  0  0  0  0  0  0
    3.5180   -1.3546    2.0600 H   0  0  0  0  0  0  0  0  0  0  0  0
    3.0200   -0.5278    3.5481 H   0  0  0  0  0  0  0  0  0  0  0  0
    2.1230   -1.9825    2.9777 H   0  0  0  0  0  0  0  0  0  0  0  0
    1.9312    0.7624    1.7636 H   0  0  0  0  0  0  0  0  0  0  0  0
   -0.9600    1.8462   -0.2487 H   0  0  0  0  0  0  0  0  0  0  0  0
    0.6158    1.7240    0.7275 H   0  0  0  0  0  0  0  0  0  0  0  0
   -1.6544   -1.7999    0.2731 H   0  0  0  0  0  0  0  0  0  0  0  0
   -4.2577   -0.7658   -2.0316 H   0  0  0  0  0  0  0  0  0  0  0  0
   -3.3363   -2.1627   -1.3918 H   0  0  0  0  0  0  0  0  0  0  0  0
   -4.4509   -1.2725   -0.3258 H   0  0  0  0  0  0  0  0  0  0  0  0
  1  2  1  0
  1 11  1  0
  1 12  1  0
  1 13  1  0
  2  3  1  0
  2 14  1  0
  3  4  2  0
  3  5  1  0
  5  6  2  3
  5  7  1  0
  6 15  1  0
  6 16  1  0
  7  8  1  0
  7 17  1  0
  8  9  1  0
  8 10  2  0
  9 18  1  0
  9 19  1  0
  9 20  1  0
M  END

> <RosettaParamsInstructions>
M  ROOT 7
M  POLY_N_BB 7
M  POLY_CA_BB 5
M  POLY_C_BB 3
M  POLY_O_BB 4
M  POLY_IGNORE 1 10 9 14 11 12 13 18 19 20
M  POLY_UPPER 2
M  POLY_LOWER 8
M  POLY_CHG 0
M  POLY_PROPERTIES PROTEIN POLYMER ALPHA_AA ALIPHATIC
M  END

$$$$
DHA_new
     RDKit          3D

 20 19  0  0  0  0  0  0  0  0999 V2000
    2.6529   -0.9998    2.6831 C   0  0  0  0  0  0  0  0  0  0  0  0
    1.6721   -0.2296    1.8661 N   0  0  0  0  0  0  0  0  0  0  0  0
    0.5364   -0.8741    1.3674 C   0  0  0  0  0  0  0  0  0  0  0  0
    0.3045   -2.0991    1.5840 O   0  0  0  0  0  0  0  0  0  0  0  0
   -0.4531   -0.1190    0.5496 C   0  0  0  0  0  0  0  0  0  0  0  0
   -0.2367    1.1536    0.3098 C   0  0  0  0  0  0  0  0  0  0  0  0
   -1.5810   -0.7773    0.0596 N   0  0  0  0  0  0  0  0  0  0  0  0
   -2.6017   -0.2516   -0.7103 C   0  0  0  0  0  0  0  0  0  0  0  0
   -3.7683   -1.1466   -1.1547 C   0  0  0  0  0  0  0  0  0  0  0  0
   -2.6539    0.9252   -1.0844 O   0  0  0  0  0  0  0  0  0  0  0  0
    2.0733   -1.7695    3.2280 H   0  0  0  0  0  0  0  0  0  0  0  0
    3.3016   -1.5132    1.9576 H   0  0  0  0  0  0  0  0  0  0  0  0
    3.1929   -0.3228    3.3730 H   0  0  0  0  0  0  0  0  0  0  0  0
    1.9226    0.7620    1.7286 H   0  0  0  0  0  0  0  0  0  0  0  0
   -0.9146    1.7508   -0.2737 H   0  0  0  0  0  0  0  0  0  0  0  0
    0.6539    1.6596    0.7007 H   0  0  0  0  0  0  0  0  0  0  0  0
   -1.6674   -1.8219    0.3116 H   0  0  0  0  0  0  0  0  0  0  0  0
   -3.5576   -1.3480   -2.2227 H   0  0  0  0  0  0  0  0  0  0  0  0
   -3.7797   -2.0533   -0.5347 H   0  0  0  0  0  0  0  0  0  0  0  0
   -4.7027   -0.5777   -0.9977 H   0  0  0  0  0  0  0  0  0  0  0  0
  1  2  1  0
  1 11  1  0
  1 12  1  0
  1 13  1  0
  2  3  1  0
  2 14  1  0
  3  4  2  0
  3  5  1  0
  5  6  2  3
  5  7  1  0
  6 15  1  0
  6 16  1  0
  7  8  1  0
  7 17  1  0
  8  9  1  0
  8 10  2  0
  9 18  1  0
  9 19  1  0
  9 20  1  0
M  END

> <RosettaParamsInstructions>
M  ROOT 7
M  POLY_N_BB 7
M  POLY_CA_BB 5
M  POLY_C_BB 3
M  POLY_O_BB 4
M  POLY_IGNORE 1 10 9 14 11 12 13 18 19 20
M  POLY_UPPER 2
M  POLY_LOWER 8
M  POLY_CHG 0
M  POLY_PROPERTIES PROTEIN POLYMER ALPHA_AA ALIPHATIC
M  END

$$$$
DHA_new
     RDKit          3D

 20 19  0  0  0  0  0  0  0  0999 V2000
    2.5998   -1.0395    2.6611 C   0  0  0  0  0  0  0  0  0  0  0  0
    1.6734   -0.2096    1.8666 N   0  0  0  0  0  0  0  0  0  0  0  0
    0.5391   -0.8552    1.3586 C   0  0  0  0  0  0  0  0  0  0  0  0
    0.3084   -2.0952    1.5653 O   0  0  0  0  0  0  0  0  0  0  0  0
   -0.4473   -0.0909    0.5462 C   0  0  0  0  0  0  0  0  0  0  0  0
   -0.2435    1.1876    0.3125 C   0  0  0  0  0  0  0  0  0  0  0  0
   -1.5829   -0.7657    0.0454 N   0  0  0  0  0  0  0  0  0  0  0  0
   -2.5983   -0.2474   -0.7158 C   0  0  0  0  0  0  0  0  0  0  0  0
   -3.7289   -1.1543   -1.1487 C   0  0  0  0  0  0  0  0  0  0  0  0
   -2.6893    0.9196   -1.0973 O   0  0  0  0  0  0  0  0  0  0  0  0
    2.5037   -0.6930    3.7033 H   0  0  0  0  0  0  0  0  0  0  0  0
    2.4167   -2.1061    2.5216 H   0  0  0  0  0  0  0  0  0  0  0  0
    3.6099   -0.8132    2.3108 H   0  0  0  0  0  0  0  0  0  0  0  0
    1.9621    0.7685    1.7683 H   0  0  0  0  0  0  0  0  0  0  0  0
    0.6557    1.6567    0.7272 H   0  0  0  0  0  0  0  0  0  0  0  0
   -0.9230    1.7745   -0.2641 H   0  0  0  0  0  0  0  0  0  0  0  0
   -1.6497   -1.8094    0.2967 H   0  0  0  0  0  0  0  0  0  0  0  0
   -4.0037   -0.9080   -2.1746 H   0  0  0  0  0  0  0  0  0  0  0  0
   -3.4194   -2.2137   -1.0658 H   0  0  0  0  0  0  0  0  0  0  0  0
   -4.5892   -0.9578   -0.4766 H   0  0  0  0  0  0  0  0  0  0  0  0
  1  2  1  0
  1 11  1  0
  1 12  1  0
  1 13  1  0
  2  3  1  0
  2 14  1  0
  3  4  2  0
  3  5  1  0
  5  6  2  3
  5  7  1  0
  6 15  1  0
  6 16  1  0
  7  8  1  0
  7 17  1  0
  8  9  1  0
  8 10  2  0
  9 18  1  0
  9 19  1  0
  9 20  1  0
M  END

> <RosettaParamsInstructions>
M  ROOT 7
M  POLY_N_BB 7
M  POLY_CA_BB 5
M  POLY_C_BB 3
M  POLY_O_BB 4
M  POLY_IGNORE 1 10 9 14 11 12 13 18 19 20
M  POLY_UPPER 2
M  POLY_LOWER 8
M  POLY_CHG 0
M  POLY_PROPERTIES PROTEIN POLYMER ALPHA_AA ALIPHATIC
M  END

$$$$
DHA_new
     RDKit          3D

 20 19  0  0  0  0  0  0  0  0999 V2000
    2.6857   -1.0744    2.5551 C   0  0  0  0  0  0  0  0  0  0  0  0
    1.6973   -0.2299    1.8600 N   0  0  0  0  0  0  0  0  0  0  0  0
    0.5795   -0.8448    1.2987 C   0  0  0  0  0  0  0  0  0  0  0  0
    0.4235   -2.0891    1.3863 O   0  0  0  0  0  0  0  0  0  0  0  0
   -0.4495   -0.0668    0.5896 C   0  0  0  0  0  0  0  0  0  0  0  0
   -0.3315    1.2317    0.4721 C   0  0  0  0  0  0  0  0  0  0  0  0
   -1.5542   -0.7814    0.0502 N   0  0  0  0  0  0  0  0  0  0  0  0
   -2.6267   -0.2573   -0.6479 C   0  0  0  0  0  0  0  0  0  0  0  0
   -3.7277   -1.1621   -1.1578 C   0  0  0  0  0  0  0  0  0  0  0  0
   -2.7798    0.9408   -0.9084 O   0  0  0  0  0  0  0  0  0  0  0  0
    2.1194   -1.8976    3.0203 H   0  0  0  0  0  0  0  0  0  0  0  0
    3.4511   -1.4231    1.8545 H   0  0  0  0  0  0  0  0  0  0  0  0
    3.1878   -0.4590    3.3536 H   0  0  0  0  0  0  0  0  0  0  0  0
    1.8549    0.7921    1.8052 H   0  0  0  0  0  0  0  0  0  0  0  0
    0.5169    1.7920    0.8847 H   0  0  0  0  0  0  0  0  0  0  0  0
   -1.0451    1.8397   -0.0295 H   0  0  0  0  0  0  0  0  0  0  0  0
   -1.5839   -1.8520    0.1863 H   0  0  0  0  0  0  0  0  0  0  0  0
   -3.4123   -2.2133   -1.0805 H   0  0  0  0  0  0  0  0  0  0  0  0
   -4.6500   -1.0191   -0.5467 H   0  0  0  0  0  0  0  0  0  0  0  0
   -3.9619   -0.8786   -2.2049 H   0  0  0  0  0  0  0  0  0  0  0  0
  1  2  1  0
  1 11  1  0
  1 12  1  0
  1 13  1  0
  2  3  1  0
  2 14  1  0
  3  4  2  0
  3  5  1  0
  5  6  2  3
  5  7  1  0
  6 15  1  0
  6 16  1  0
  7  8  1  0
  7 17  1  0
  8  9  1  0
  8 10  2  0
  9 18  1  0
  9 19  1  0
  9 20  1  0
M  END

> <RosettaParamsInstructions>
M  ROOT 7
M  POLY_N_BB 7
M  POLY_CA_BB 5
M  POLY_C_BB 3
M  POLY_O_BB 4
M  POLY_IGNORE 1 10 9 14 11 12 13 18 19 20
M  POLY_UPPER 2
M  POLY_LOWER 8
M  POLY_CHG 0
M  POLY_PROPERTIES PROTEIN POLYMER ALPHA_AA ALIPHATIC
M  END

$$$$
DHA_new
     RDKit          3D

 20 19  0  0  0  0  0  0  0  0999 V2000
    2.6322   -1.0513    2.5978 C   0  0  0  0  0  0  0  0  0  0  0  0
    1.6643   -0.2442    1.8494 N   0  0  0  0  0  0  0  0  0  0  0  0
    0.5349   -0.8374    1.3181 C   0  0  0  0  0  0  0  0  0  0  0  0
    0.3425   -2.0807    1.4820 O   0  0  0  0  0  0  0  0  0  0  0  0
   -0.4751   -0.0861    0.5575 C   0  0  0  0  0  0  0  0  0  0  0  0
   -0.2938    1.1992    0.3777 C   0  0  0  0  0  0  0  0  0  0  0  0
   -1.6042   -0.7774    0.0482 N   0  0  0  0  0  0  0  0  0  0  0  0
   -2.6290   -0.2123   -0.6796 C   0  0  0  0  0  0  0  0  0  0  0  0
   -3.7394   -1.1640   -1.1200 C   0  0  0  0  0  0  0  0  0  0  0  0
   -2.7071    0.9823   -0.9915 O   0  0  0  0  0  0  0  0  0  0  0  0
    2.2068   -2.0177    2.8980 H   0  0  0  0  0  0  0  0  0  0  0  0
    2.9359   -0.4701    3.4827 H   0  0  0  0  0  0  0  0  0  0  0  0
    3.4829   -1.2373    1.9136 H   0  0  0  0  0  0  0  0  0  0  0  0
    1.8970    0.7478    1.7652 H   0  0  0  0  0  0  0  0  0  0  0  0
   -0.9755    1.8531   -0.1684 H   0  0  0  0  0  0  0  0  0  0  0  0
    0.6065    1.6784    0.7998 H   0  0  0  0  0  0  0  0  0  0  0  0
   -1.6541   -1.8287    0.2531 H   0  0  0  0  0  0  0  0  0  0  0  0
   -4.5784   -0.5738   -1.4799 H   0  0  0  0  0  0  0  0  0  0  0  0
   -3.2936   -1.7580   -1.9261 H   0  0  0  0  0  0  0  0  0  0  0  0
   -3.9593   -1.7743   -0.2368 H   0  0  0  0  0  0  0  0  0  0  0  0
  1  2  1  0
  1 11  1  0
  1 12  1  0
  1 13  1  0
  2  3  1  0
  2 14  1  0
  3  4  2  0
  3  5  1  0
  5  6  2  3
  5  7  1  0
  6 15  1  0
  6 16  1  0
  7  8  1  0
  7 17  1  0
  8  9  1  0
  8 10  2  0
  9 18  1  0
  9 19  1  0
  9 20  1  0
M  END

> <RosettaParamsInstructions>
M  ROOT 7
M  POLY_N_BB 7
M  POLY_CA_BB 5
M  POLY_C_BB 3
M  POLY_O_BB 4
M  POLY_IGNORE 1 10 9 14 11 12 13 18 19 20
M  POLY_UPPER 2
M  POLY_LOWER 8
M  POLY_CHG 0
M  POLY_PROPERTIES PROTEIN POLYMER ALPHA_AA ALIPHATIC
M  END

$$$$
DHA_new
     RDKit          3D

 20 19  0  0  0  0  0  0  0  0999 V2000
    2.6417   -1.0472    2.6764 C   0  0  0  0  0  0  0  0  0  0  0  0
    1.6802   -0.2629    1.8750 N   0  0  0  0  0  0  0  0  0  0  0  0
    0.5254   -0.8511    1.3490 C   0  0  0  0  0  0  0  0  0  0  0  0
    0.3360   -2.0821    1.5864 O   0  0  0  0  0  0  0  0  0  0  0  0
   -0.4540   -0.0918    0.5440 C   0  0  0  0  0  0  0  0  0  0  0  0
   -0.2691    1.1778    0.2930 C   0  0  0  0  0  0  0  0  0  0  0  0
   -1.5788   -0.7904    0.0674 N   0  0  0  0  0  0  0  0  0  0  0  0
   -2.6004   -0.2660   -0.6960 C   0  0  0  0  0  0  0  0  0  0  0  0
   -3.7507   -1.1523   -1.1344 C   0  0  0  0  0  0  0  0  0  0  0  0
   -2.6808    0.9047   -1.0782 O   0  0  0  0  0  0  0  0  0  0  0  0
    3.6473   -0.9267    2.2000 H   0  0  0  0  0  0  0  0  0  0  0  0
    2.6268   -0.5827    3.6836 H   0  0  0  0  0  0  0  0  0  0  0  0
    2.2945   -2.0900    2.6740 H   0  0  0  0  0  0  0  0  0  0  0  0
    1.9289    0.7206    1.7439 H   0  0  0  0  0  0  0  0  0  0  0  0
    0.6333    1.6889    0.6894 H   0  0  0  0  0  0  0  0  0  0  0  0
   -0.9328    1.7945   -0.2817 H   0  0  0  0  0  0  0  0  0  0  0  0
   -1.6580   -1.8368    0.3183 H   0  0  0  0  0  0  0  0  0  0  0  0
   -3.8213   -1.0284   -2.2305 H   0  0  0  0  0  0  0  0  0  0  0  0
   -3.5326   -2.1946   -0.9023 H   0  0  0  0  0  0  0  0  0  0  0  0
   -4.6420   -0.7358   -0.6362 H   0  0  0  0  0  0  0  0  0  0  0  0
  1  2  1  0
  1 11  1  0
  1 12  1  0
  1 13  1  0
  2  3  1  0
  2 14  1  0
  3  4  2  0
  3  5  1  0
  5  6  2  3
  5  7  1  0
  6 15  1  0
  6 16  1  0
  7  8  1  0
  7 17  1  0
  8  9  1  0
  8 10  2  0
  9 18  1  0
  9 19  1  0
  9 20  1  0
M  END

> <RosettaParamsInstructions>
M  ROOT 7
M  POLY_N_BB 7
M  POLY_CA_BB 5
M  POLY_C_BB 3
M  POLY_O_BB 4
M  POLY_IGNORE 1 10 9 14 11 12 13 18 19 20
M  POLY_UPPER 2
M  POLY_LOWER 8
M  POLY_CHG 0
M  POLY_PROPERTIES PROTEIN POLYMER ALPHA_AA ALIPHATIC
M  END

$$$$
DHA_new
     RDKit          3D

 20 19  0  0  0  0  0  0  0  0999 V2000
    2.6699   -1.0681    2.5604 C   0  0  0  0  0  0  0  0  0  0  0  0
    1.6898   -0.2395    1.8540 N   0  0  0  0  0  0  0  0  0  0  0  0
    0.5577   -0.8149    1.2897 C   0  0  0  0  0  0  0  0  0  0  0  0
    0.4039   -2.0681    1.4057 O   0  0  0  0  0  0  0  0  0  0  0  0
   -0.4556   -0.0573    0.5757 C   0  0  0  0  0  0  0  0  0  0  0  0
   -0.3106    1.2391    0.4475 C   0  0  0  0  0  0  0  0  0  0  0  0
   -1.5755   -0.7611    0.0394 N   0  0  0  0  0  0  0  0  0  0  0  0
   -2.6506   -0.2336   -0.6728 C   0  0  0  0  0  0  0  0  0  0  0  0
   -3.7301   -1.1770   -1.1463 C   0  0  0  0  0  0  0  0  0  0  0  0
   -2.7967    0.9739   -0.9559 O   0  0  0  0  0  0  0  0  0  0  0  0
    2.3217   -1.1247    3.6145 H   0  0  0  0  0  0  0  0  0  0  0  0
    2.7354   -2.0818    2.1559 H   0  0  0  0  0  0  0  0  0  0  0  0
    3.6603   -0.6091    2.5519 H   0  0  0  0  0  0  0  0  0  0  0  0
    1.8863    0.7674    1.8032 H   0  0  0  0  0  0  0  0  0  0  0  0
   -1.0183    1.8780   -0.0692 H   0  0  0  0  0  0  0  0  0  0  0  0
    0.5544    1.7230    0.8715 H   0  0  0  0  0  0  0  0  0  0  0  0
   -1.5702   -1.8097    0.2144 H   0  0  0  0  0  0  0  0  0  0  0  0
   -4.1107   -0.7921   -2.1101 H   0  0  0  0  0  0  0  0  0  0  0  0
   -4.5593   -1.1829   -0.4226 H   0  0  0  0  0  0  0  0  0  0  0  0
   -3.3082   -2.2137   -1.2661 H   0  0  0  0  0  0  0  0  0  0  0  0
  1  2  1  0
  1 11  1  0
  1 12  1  0
  1 13  1  0
  2  3  1  0
  2 14  1  0
  3  4  2  0
  3  5  1  0
  5  6  2  3
  5  7  1  0
  6 15  1  0
  6 16  1  0
  7  8  1  0
  7 17  1  0
  8  9  1  0
  8 10  2  0
  9 18  1  0
  9 19  1  0
  9 20  1  0
M  END

> <RosettaParamsInstructions>
M  ROOT 7
M  POLY_N_BB 7
M  POLY_CA_BB 5
M  POLY_C_BB 3
M  POLY_O_BB 4
M  POLY_IGNORE 1 10 9 14 11 12 13 18 19 20
M  POLY_UPPER 2
M  POLY_LOWER 8
M  POLY_CHG 0
M  POLY_PROPERTIES PROTEIN POLYMER ALPHA_AA ALIPHATIC
M  END

$$$$
DHA_new
     RDKit          3D

 20 19  0  0  0  0  0  0  0  0999 V2000
    2.7222   -1.0442    2.5748 C   0  0  0  0  0  0  0  0  0  0  0  0
    1.6831   -0.2583    1.9051 N   0  0  0  0  0  0  0  0  0  0  0  0
    0.5854   -0.8378    1.2894 C   0  0  0  0  0  0  0  0  0  0  0  0
    0.4641   -2.0879    1.2986 O   0  0  0  0  0  0  0  0  0  0  0  0
   -0.4834   -0.0787    0.6039 C   0  0  0  0  0  0  0  0  0  0  0  0
   -0.4132    1.2285    0.5606 C   0  0  0  0  0  0  0  0  0  0  0  0
   -1.5592   -0.7561    0.0075 N   0  0  0  0  0  0  0  0  0  0  0  0
   -2.6472   -0.2148   -0.6754 C   0  0  0  0  0  0  0  0  0  0  0  0
   -3.6964   -1.1688   -1.2379 C   0  0  0  0  0  0  0  0  0  0  0  0
   -2.8942    0.9818   -0.9002 O   0  0  0  0  0  0  0  0  0  0  0  0
    2.5277   -0.9941    3.6743 H   0  0  0  0  0  0  0  0  0  0  0  0
    3.7246   -0.6504    2.4002 H   0  0  0  0  0  0  0  0  0  0  0  0
    2.5915   -2.0930    2.2428 H   0  0  0  0  0  0  0  0  0  0  0  0
    1.8319    0.7610    1.9274 H   0  0  0  0  0  0  0  0  0  0  0  0
    0.4287    1.7219    1.0297 H   0  0  0  0  0  0  0  0  0  0  0  0
   -1.1576    1.8065    0.0800 H   0  0  0  0  0  0  0  0  0  0  0  0
   -1.5397   -1.8287    0.0890 H   0  0  0  0  0  0  0  0  0  0  0  0
   -4.5839   -1.1044   -0.6030 H   0  0  0  0  0  0  0  0  0  0  0  0
   -3.2825   -2.2081   -1.2545 H   0  0  0  0  0  0  0  0  0  0  0  0
   -3.9084   -0.8268   -2.2713 H   0  0  0  0  0  0  0  0  0  0  0  0
  1  2  1  0
  1 11  1  0
  1 12  1  0
  1 13  1  0
  2  3  1  0
  2 14  1  0
  3  4  2  0
  3  5  1  0
  5  6  2  3
  5  7  1  0
  6 15  1  0
  6 16  1  0
  7  8  1  0
  7 17  1  0
  8  9  1  0
  8 10  2  0
  9 18  1  0
  9 19  1  0
  9 20  1  0
M  END

> <RosettaParamsInstructions>
M  ROOT 7
M  POLY_N_BB 7
M  POLY_CA_BB 5
M  POLY_C_BB 3
M  POLY_O_BB 4
M  POLY_IGNORE 1 10 9 14 11 12 13 18 19 20
M  POLY_UPPER 2
M  POLY_LOWER 8
M  POLY_CHG 0
M  POLY_PROPERTIES PROTEIN POLYMER ALPHA_AA ALIPHATIC
M  END

$$$$
DHA_new
     RDKit          3D

 20 19  0  0  0  0  0  0  0  0999 V2000
    2.7118   -1.0781    2.4904 C   0  0  0  0  0  0  0  0  0  0  0  0
    1.6847   -0.2239    1.8760 N   0  0  0  0  0  0  0  0  0  0  0  0
    0.5939   -0.8237    1.2652 C   0  0  0  0  0  0  0  0  0  0  0  0
    0.5215   -2.0922    1.2586 O   0  0  0  0  0  0  0  0  0  0  0  0
   -0.4871   -0.0529    0.6221 C   0  0  0  0  0  0  0  0  0  0  0  0
   -0.4387    1.2431    0.6141 C   0  0  0  0  0  0  0  0  0  0  0  0
   -1.5573   -0.7543    0.0259 N   0  0  0  0  0  0  0  0  0  0  0  0
   -2.6735   -0.2388   -0.6304 C   0  0  0  0  0  0  0  0  0  0  0  0
   -3.7164   -1.1613   -1.2048 C   0  0  0  0  0  0  0  0  0  0  0  0
   -2.8815    0.9729   -0.7836 O   0  0  0  0  0  0  0  0  0  0  0  0
    2.1969   -1.6545    3.2729 H   0  0  0  0  0  0  0  0  0  0  0  0
    3.5028   -0.4794    2.9663 H   0  0  0  0  0  0  0  0  0  0  0  0
    3.1972   -1.7158    1.7275 H   0  0  0  0  0  0  0  0  0  0  0  0
    1.8242    0.7903    1.9281 H   0  0  0  0  0  0  0  0  0  0  0  0
   -1.1899    1.8556    0.1651 H   0  0  0  0  0  0  0  0  0  0  0  0
    0.4134    1.7533    1.0900 H   0  0  0  0  0  0  0  0  0  0  0  0
   -1.4954   -1.8213    0.0911 H   0  0  0  0  0  0  0  0  0  0  0  0
   -4.5799   -1.2479   -0.5143 H   0  0  0  0  0  0  0  0  0  0  0  0
   -4.0009   -0.7548   -2.1769 H   0  0  0  0  0  0  0  0  0  0  0  0
   -3.2325   -2.1686   -1.3422 H   0  0  0  0  0  0  0  0  0  0  0  0
  1  2  1  0
  1 11  1  0
  1 12  1  0
  1 13  1  0
  2  3  1  0
  2 14  1  0
  3  4  2  0
  3  5  1  0
  5  6  2  3
  5  7  1  0
  6 15  1  0
  6 16  1  0
  7  8  1  0
  7 17  1  0
  8  9  1  0
  8 10  2  0
  9 18  1  0
  9 19  1  0
  9 20  1  0
M  END

> <RosettaParamsInstructions>
M  ROOT 7
M  POLY_N_BB 7
M  POLY_CA_BB 5
M  POLY_C_BB 3
M  POLY_O_BB 4
M  POLY_IGNORE 1 10 9 14 11 12 13 18 19 20
M  POLY_UPPER 2
M  POLY_LOWER 8
M  POLY_CHG 0
M  POLY_PROPERTIES PROTEIN POLYMER ALPHA_AA ALIPHATIC
M  END

$$$$
DHA_new
     RDKit          3D

 20 19  0  0  0  0  0  0  0  0999 V2000
    2.7245   -1.0362    2.5541 C   0  0  0  0  0  0  0  0  0  0  0  0
    1.6909   -0.2376    1.8727 N   0  0  0  0  0  0  0  0  0  0  0  0
    0.5785   -0.8481    1.2892 C   0  0  0  0  0  0  0  0  0  0  0  0
    0.4802   -2.1135    1.3612 O   0  0  0  0  0  0  0  0  0  0  0  0
   -0.4761   -0.0770    0.5983 C   0  0  0  0  0  0  0  0  0  0  0  0
   -0.3403    1.2235    0.5445 C   0  0  0  0  0  0  0  0  0  0  0  0
   -1.5634   -0.7867    0.0396 N   0  0  0  0  0  0  0  0  0  0  0  0
   -2.6606   -0.2513   -0.6519 C   0  0  0  0  0  0  0  0  0  0  0  0
   -3.7348   -1.1787   -1.1807 C   0  0  0  0  0  0  0  0  0  0  0  0
   -2.8762    0.9572   -0.9003 O   0  0  0  0  0  0  0  0  0  0  0  0
    3.6960   -0.6323    2.2595 H   0  0  0  0  0  0  0  0  0  0  0  0
    2.5485   -1.0507    3.6510 H   0  0  0  0  0  0  0  0  0  0  0  0
    2.6411   -2.0691    2.1245 H   0  0  0  0  0  0  0  0  0  0  0  0
    1.8520    0.7636    1.8641 H   0  0  0  0  0  0  0  0  0  0  0  0
    0.4881    1.7504    0.9716 H   0  0  0  0  0  0  0  0  0  0  0  0
   -1.0757    1.8367    0.0550 H   0  0  0  0  0  0  0  0  0  0  0  0
   -1.5439   -1.8474    0.1592 H   0  0  0  0  0  0  0  0  0  0  0  0
   -4.6809   -0.7964   -0.7052 H   0  0  0  0  0  0  0  0  0  0  0  0
   -3.8593   -1.0546   -2.2640 H   0  0  0  0  0  0  0  0  0  0  0  0
   -3.4952   -2.2040   -0.9016 H   0  0  0  0  0  0  0  0  0  0  0  0
  1  2  1  0
  1 11  1  0
  1 12  1  0
  1 13  1  0
  2  3  1  0
  2 14  1  0
  3  4  2  0
  3  5  1  0
  5  6  2  3
  5  7  1  0
  6 15  1  0
  6 16  1  0
  7  8  1  0
  7 17  1  0
  8  9  1  0
  8 10  2  0
  9 18  1  0
  9 19  1  0
  9 20  1  0
M  END

> <RosettaParamsInstructions>
M  ROOT 7
M  POLY_N_BB 7
M  POLY_CA_BB 5
M  POLY_C_BB 3
M  POLY_O_BB 4
M  POLY_IGNORE 1 10 9 14 11 12 13 18 19 20
M  POLY_UPPER 2
M  POLY_LOWER 8
M  POLY_CHG 0
M  POLY_PROPERTIES PROTEIN POLYMER ALPHA_AA ALIPHATIC
M  END

$$$$
DHA_new
     RDKit          3D

 20 19  0  0  0  0  0  0  0  0999 V2000
    2.7163   -1.0416    2.5819 C   0  0  0  0  0  0  0  0  0  0  0  0
    1.6820   -0.2477    1.9236 N   0  0  0  0  0  0  0  0  0  0  0  0
    0.5776   -0.8432    1.2918 C   0  0  0  0  0  0  0  0  0  0  0  0
    0.5081   -2.1153    1.3128 O   0  0  0  0  0  0  0  0  0  0  0  0
   -0.4996   -0.0922    0.6099 C   0  0  0  0  0  0  0  0  0  0  0  0
   -0.4295    1.2143    0.5874 C   0  0  0  0  0  0  0  0  0  0  0  0
   -1.5567   -0.7826    0.0111 N   0  0  0  0  0  0  0  0  0  0  0  0
   -2.6447   -0.2349   -0.6672 C   0  0  0  0  0  0  0  0  0  0  0  0
   -3.7147   -1.1555   -1.2623 C   0  0  0  0  0  0  0  0  0  0  0  0
   -2.8967    0.9722   -0.8776 O   0  0  0  0  0  0  0  0  0  0  0  0
    2.9350   -0.6386    3.5874 H   0  0  0  0  0  0  0  0  0  0  0  0
    3.6537   -1.0509    1.9789 H   0  0  0  0  0  0  0  0  0  0  0  0
    2.3460   -2.0619    2.7087 H   0  0  0  0  0  0  0  0  0  0  0  0
    1.8081    0.7647    1.9493 H   0  0  0  0  0  0  0  0  0  0  0  0
   -1.1765    1.7996    0.1113 H   0  0  0  0  0  0  0  0  0  0  0  0
    0.4000    1.7664    1.0567 H   0  0  0  0  0  0  0  0  0  0  0  0
   -1.5074   -1.8530    0.0935 H   0  0  0  0  0  0  0  0  0  0  0  0
   -3.3523   -2.2150   -1.1644 H   0  0  0  0  0  0  0  0  0  0  0  0
   -3.7811   -0.8448   -2.3250 H   0  0  0  0  0  0  0  0  0  0  0  0
   -4.6742   -0.9922   -0.7668 H   0  0  0  0  0  0  0  0  0  0  0  0
  1  2  1  0
  1 11  1  0
  1 12  1  0
  1 13  1  0
  2  3  1  0
  2 14  1  0
  3  4  2  0
  3  5  1  0
  5  6  2  3
  5  7  1  0
  6 15  1  0
  6 16  1  0
  7  8  1  0
  7 17  1  0
  8  9  1  0
  8 10  2  0
  9 18  1  0
  9 19  1  0
  9 20  1  0
M  END

> <RosettaParamsInstructions>
M  ROOT 7
M  POLY_N_BB 7
M  POLY_CA_BB 5
M  POLY_C_BB 3
M  POLY_O_BB 4
M  POLY_IGNORE 1 10 9 14 11 12 13 18 19 20
M  POLY_UPPER 2
M  POLY_LOWER 8
M  POLY_CHG 0
M  POLY_PROPERTIES PROTEIN POLYMER ALPHA_AA ALIPHATIC
M  END

$$$$
DHA_new
     RDKit          3D

 20 19  0  0  0  0  0  0  0  0999 V2000
    2.7046   -1.0604    2.5685 C   0  0  0  0  0  0  0  0  0  0  0  0
    1.6866   -0.2259    1.9158 N   0  0  0  0  0  0  0  0  0  0  0  0
    0.5982   -0.8383    1.3023 C   0  0  0  0  0  0  0  0  0  0  0  0
    0.4827   -2.1059    1.3046 O   0  0  0  0  0  0  0  0  0  0  0  0
   -0.4756   -0.0707    0.6202 C   0  0  0  0  0  0  0  0  0  0  0  0
   -0.4019    1.2433    0.5904 C   0  0  0  0  0  0  0  0  0  0  0  0
   -1.5500   -0.7484    0.0187 N   0  0  0  0  0  0  0  0  0  0  0  0
   -2.6539   -0.2486   -0.6663 C   0  0  0  0  0  0  0  0  0  0  0  0
   -3.7035   -1.1939   -1.2380 C   0  0  0  0  0  0  0  0  0  0  0  0
   -2.9278    0.9574   -0.8969 O   0  0  0  0  0  0  0  0  0  0  0  0
    2.9634   -0.5661    3.5258 H   0  0  0  0  0  0  0  0  0  0  0  0
    3.5716   -1.1591    1.9159 H   0  0  0  0  0  0  0  0  0  0  0  0
    2.2985   -2.0677    2.7740 H   0  0  0  0  0  0  0  0  0  0  0  0
    1.8541    0.7853    1.9587 H   0  0  0  0  0  0  0  0  0  0  0  0
    0.4269    1.7495    1.0553 H   0  0  0  0  0  0  0  0  0  0  0  0
   -1.1585    1.8147    0.1080 H   0  0  0  0  0  0  0  0  0  0  0  0
   -1.5072   -1.8155    0.1039 H   0  0  0  0  0  0  0  0  0  0  0  0
   -3.6518   -1.0358   -2.3350 H   0  0  0  0  0  0  0  0  0  0  0  0
   -4.6882   -0.8352   -0.9019 H   0  0  0  0  0  0  0  0  0  0  0  0
   -3.4745   -2.2309   -0.9830 H   0  0  0  0  0  0  0  0  0  0  0  0
  1  2  1  0
  1 11  1  0
  1 12  1  0
  1 13  1  0
  2  3  1  0
  2 14  1  0
  3  4  2  0
  3  5  1  0
  5  6  2  3
  5  7  1  0
  6 15  1  0
  6 16  1  0
  7  8  1  0
  7 17  1  0
  8  9  1  0
  8 10  2  0
  9 18  1  0
  9 19  1  0
  9 20  1  0
M  END

> <RosettaParamsInstructions>
M  ROOT 7
M  POLY_N_BB 7
M  POLY_CA_BB 5
M  POLY_C_BB 3
M  POLY_O_BB 4
M  POLY_IGNORE 1 10 9 14 11 12 13 18 19 20
M  POLY_UPPER 2
M  POLY_LOWER 8
M  POLY_CHG 0
M  POLY_PROPERTIES PROTEIN POLYMER ALPHA_AA ALIPHATIC
M  END

$$$$
DHA_new
     RDKit          3D

 20 19  0  0  0  0  0  0  0  0999 V2000
    2.6705   -1.0636    2.5558 C   0  0  0  0  0  0  0  0  0  0  0  0
    1.6460   -0.2055    1.9093 N   0  0  0  0  0  0  0  0  0  0  0  0
    0.5805   -0.8503    1.2880 C   0  0  0  0  0  0  0  0  0  0  0  0
    0.4915   -2.0993    1.2758 O   0  0  0  0  0  0  0  0  0  0  0  0
   -0.4913   -0.0906    0.6163 C   0  0  0  0  0  0  0  0  0  0  0  0
   -0.3994    1.2219    0.6281 C   0  0  0  0  0  0  0  0  0  0  0  0
   -1.5583   -0.7845   -0.0042 N   0  0  0  0  0  0  0  0  0  0  0  0
   -2.6274   -0.2407   -0.6672 C   0  0  0  0  0  0  0  0  0  0  0  0
   -3.6727   -1.1491   -1.2675 C   0  0  0  0  0  0  0  0  0  0  0  0
   -2.8540    0.9777   -0.8444 O   0  0  0  0  0  0  0  0  0  0  0  0
    2.6640   -0.7883    3.6230 H   0  0  0  0  0  0  0  0  0  0  0  0
    3.6510   -0.8091    2.0819 H   0  0  0  0  0  0  0  0  0  0  0  0
    2.4776   -2.1267    2.3804 H   0  0  0  0  0  0  0  0  0  0  0  0
    1.8496    0.8002    1.9987 H   0  0  0  0  0  0  0  0  0  0  0  0
   -1.1357    1.8593    0.1628 H   0  0  0  0  0  0  0  0  0  0  0  0
    0.4403    1.7342    1.1176 H   0  0  0  0  0  0  0  0  0  0  0  0
   -1.5048   -1.8495    0.0634 H   0  0  0  0  0  0  0  0  0  0  0  0
   -4.6670   -0.6783   -1.2359 H   0  0  0  0  0  0  0  0  0  0  0  0
   -3.4208   -1.4281   -2.3012 H   0  0  0  0  0  0  0  0  0  0  0  0
   -3.7462   -2.0819   -0.6398 H   0  0  0  0  0  0  0  0  0  0  0  0
  1  2  1  0
  1 11  1  0
  1 12  1  0
  1 13  1  0
  2  3  1  0
  2 14  1  0
  3  4  2  0
  3  5  1  0
  5  6  2  3
  5  7  1  0
  6 15  1  0
  6 16  1  0
  7  8  1  0
  7 17  1  0
  8  9  1  0
  8 10  2  0
  9 18  1  0
  9 19  1  0
  9 20  1  0
M  END

> <RosettaParamsInstructions>
M  ROOT 7
M  POLY_N_BB 7
M  POLY_CA_BB 5
M  POLY_C_BB 3
M  POLY_O_BB 4
M  POLY_IGNORE 1 10 9 14 11 12 13 18 19 20
M  POLY_UPPER 2
M  POLY_LOWER 8
M  POLY_CHG 0
M  POLY_PROPERTIES PROTEIN POLYMER ALPHA_AA ALIPHATIC
M  END

$$$$
DHA_new
     RDKit          3D

 20 19  0  0  0  0  0  0  0  0999 V2000
    2.7219   -1.0809    2.5260 C   0  0  0  0  0  0  0  0  0  0  0  0
    1.7333   -0.2325    1.8377 N   0  0  0  0  0  0  0  0  0  0  0  0
    0.5916   -0.8267    1.2921 C   0  0  0  0  0  0  0  0  0  0  0  0
    0.4342   -2.0910    1.4023 O   0  0  0  0  0  0  0  0  0  0  0  0
   -0.4549   -0.0811    0.5898 C   0  0  0  0  0  0  0  0  0  0  0  0
   -0.3161    1.2180    0.4650 C   0  0  0  0  0  0  0  0  0  0  0  0
   -1.5853   -0.7750    0.0781 N   0  0  0  0  0  0  0  0  0  0  0  0
   -2.6821   -0.2649   -0.6014 C   0  0  0  0  0  0  0  0  0  0  0  0
   -3.8095   -1.1389   -1.0831 C   0  0  0  0  0  0  0  0  0  0  0  0
   -2.8201    0.9454   -0.8643 O   0  0  0  0  0  0  0  0  0  0  0  0
    2.5765   -2.1224    2.1835 H   0  0  0  0  0  0  0  0  0  0  0  0
    2.5469   -0.9359    3.6120 H   0  0  0  0  0  0  0  0  0  0  0  0
    3.7194   -0.7401    2.1941 H   0  0  0  0  0  0  0  0  0  0  0  0
    1.9218    0.7871    1.7821 H   0  0  0  0  0  0  0  0  0  0  0  0
   -1.0306    1.8675   -0.0374 H   0  0  0  0  0  0  0  0  0  0  0  0
    0.5486    1.7281    0.8706 H   0  0  0  0  0  0  0  0  0  0  0  0
   -1.6055   -1.8428    0.2317 H   0  0  0  0  0  0  0  0  0  0  0  0
   -4.6209   -1.2156   -0.3634 H   0  0  0  0  0  0  0  0  0  0  0  0
   -4.1289   -0.7260   -2.0574 H   0  0  0  0  0  0  0  0  0  0  0  0
   -3.3467   -2.1245   -1.3171 H   0  0  0  0  0  0  0  0  0  0  0  0
  1  2  1  0
  1 11  1  0
  1 12  1  0
  1 13  1  0
  2  3  1  0
  2 14  1  0
  3  4  2  0
  3  5  1  0
  5  6  2  3
  5  7  1  0
  6 15  1  0
  6 16  1  0
  7  8  1  0
  7 17  1  0
  8  9  1  0
  8 10  2  0
  9 18  1  0
  9 19  1  0
  9 20  1  0
M  END

> <RosettaParamsInstructions>
M  ROOT 7
M  POLY_N_BB 7
M  POLY_CA_BB 5
M  POLY_C_BB 3
M  POLY_O_BB 4
M  POLY_IGNORE 1 10 9 14 11 12 13 18 19 20
M  POLY_UPPER 2
M  POLY_LOWER 8
M  POLY_CHG 0
M  POLY_PROPERTIES PROTEIN POLYMER ALPHA_AA ALIPHATIC
M  END

$$$$
DHA_new
     RDKit          3D

 20 19  0  0  0  0  0  0  0  0999 V2000
    2.6785   -1.0302    2.5987 C   0  0  0  0  0  0  0  0  0  0  0  0
    1.7081   -0.2384    1.8260 N   0  0  0  0  0  0  0  0  0  0  0  0
    0.5529   -0.8408    1.3262 C   0  0  0  0  0  0  0  0  0  0  0  0
    0.3434   -2.0621    1.5380 O   0  0  0  0  0  0  0  0  0  0  0  0
   -0.4387   -0.1071    0.5571 C   0  0  0  0  0  0  0  0  0  0  0  0
   -0.2526    1.1675    0.3174 C   0  0  0  0  0  0  0  0  0  0  0  0
   -1.5950   -0.7903    0.0786 N   0  0  0  0  0  0  0  0  0  0  0  0
   -2.6473   -0.2590   -0.6705 C   0  0  0  0  0  0  0  0  0  0  0  0
   -3.8040   -1.1475   -1.0934 C   0  0  0  0  0  0  0  0  0  0  0  0
   -2.7034    0.9412   -1.0290 O   0  0  0  0  0  0  0  0  0  0  0  0
    3.3790   -1.4608    1.8763 H   0  0  0  0  0  0  0  0  0  0  0  0
    2.0918   -1.8535    3.0822 H   0  0  0  0  0  0  0  0  0  0  0  0
    3.1978   -0.4064    3.3431 H   0  0  0  0  0  0  0  0  0  0  0  0
    1.9793    0.7552    1.7115 H   0  0  0  0  0  0  0  0  0  0  0  0
    0.6512    1.6624    0.7020 H   0  0  0  0  0  0  0  0  0  0  0  0
   -0.8910    1.8205   -0.2269 H   0  0  0  0  0  0  0  0  0  0  0  0
   -1.6848   -1.8353    0.3112 H   0  0  0  0  0  0  0  0  0  0  0  0
   -4.7117   -0.5234   -1.0320 H   0  0  0  0  0  0  0  0  0  0  0  0
   -3.8382   -1.9746   -0.3592 H   0  0  0  0  0  0  0  0  0  0  0  0
   -3.6218   -1.4696   -2.1163 H   0  0  0  0  0  0  0  0  0  0  0  0
  1  2  1  0
  1 11  1  0
  1 12  1  0
  1 13  1  0
  2  3  1  0
  2 14  1  0
  3  4  2  0
  3  5  1  0
  5  6  2  3
  5  7  1  0
  6 15  1  0
  6 16  1  0
  7  8  1  0
  7 17  1  0
  8  9  1  0
  8 10  2  0
  9 18  1  0
  9 19  1  0
  9 20  1  0
M  END

> <RosettaParamsInstructions>
M  ROOT 7
M  POLY_N_BB 7
M  POLY_CA_BB 5
M  POLY_C_BB 3
M  POLY_O_BB 4
M  POLY_IGNORE 1 10 9 14 11 12 13 18 19 20
M  POLY_UPPER 2
M  POLY_LOWER 8
M  POLY_CHG 0
M  POLY_PROPERTIES PROTEIN POLYMER ALPHA_AA ALIPHATIC
M  END

$$$$
DHA_new
     RDKit          3D

 20 19  0  0  0  0  0  0  0  0999 V2000
    2.6708   -1.0552    2.5679 C   0  0  0  0  0  0  0  0  0  0  0  0
    1.7005   -0.2240    1.8680 N   0  0  0  0  0  0  0  0  0  0  0  0
    0.5761   -0.8054    1.2985 C   0  0  0  0  0  0  0  0  0  0  0  0
    0.4217   -2.0620    1.4045 O   0  0  0  0  0  0  0  0  0  0  0  0
   -0.4572   -0.0642    0.5757 C   0  0  0  0  0  0  0  0  0  0  0  0
   -0.3167    1.2409    0.4540 C   0  0  0  0  0  0  0  0  0  0  0  0
   -1.5789   -0.7725    0.0277 N   0  0  0  0  0  0  0  0  0  0  0  0
   -2.6410   -0.2477   -0.6783 C   0  0  0  0  0  0  0  0  0  0  0  0
   -3.7236   -1.1786   -1.1685 C   0  0  0  0  0  0  0  0  0  0  0  0
   -2.8179    0.9579   -0.9707 O   0  0  0  0  0  0  0  0  0  0  0  0
    3.6766   -0.6542    2.4332 H   0  0  0  0  0  0  0  0  0  0  0  0
    2.4178   -1.0920    3.6674 H   0  0  0  0  0  0  0  0  0  0  0  0
    2.5979   -2.1162    2.1928 H   0  0  0  0  0  0  0  0  0  0  0  0
    1.9181    0.7809    1.8385 H   0  0  0  0  0  0  0  0  0  0  0  0
    0.5417    1.7356    0.8808 H   0  0  0  0  0  0  0  0  0  0  0  0
   -1.0233    1.8955   -0.0634 H   0  0  0  0  0  0  0  0  0  0  0  0
   -1.5669   -1.8177    0.1983 H   0  0  0  0  0  0  0  0  0  0  0  0
   -3.7594   -1.1649   -2.2574 H   0  0  0  0  0  0  0  0  0  0  0  0
   -4.6717   -0.8041   -0.7352 H   0  0  0  0  0  0  0  0  0  0  0  0
   -3.5713   -2.2043   -0.7929 H   0  0  0  0  0  0  0  0  0  0  0  0
  1  2  1  0
  1 11  1  0
  1 12  1  0
  1 13  1  0
  2  3  1  0
  2 14  1  0
  3  4  2  0
  3  5  1  0
  5  6  2  3
  5  7  1  0
  6 15  1  0
  6 16  1  0
  7  8  1  0
  7 17  1  0
  8  9  1  0
  8 10  2  0
  9 18  1  0
  9 19  1  0
  9 20  1  0
M  END

> <RosettaParamsInstructions>
M  ROOT 7
M  POLY_N_BB 7
M  POLY_CA_BB 5
M  POLY_C_BB 3
M  POLY_O_BB 4
M  POLY_IGNORE 1 10 9 14 11 12 13 18 19 20
M  POLY_UPPER 2
M  POLY_LOWER 8
M  POLY_CHG 0
M  POLY_PROPERTIES PROTEIN POLYMER ALPHA_AA ALIPHATIC
M  END

$$$$
DHA_new
     RDKit          3D

 20 19  0  0  0  0  0  0  0  0999 V2000
    2.6946   -1.0645    2.5841 C   0  0  0  0  0  0  0  0  0  0  0  0
    1.7117   -0.2476    1.8756 N   0  0  0  0  0  0  0  0  0  0  0  0
    0.5575   -0.8054    1.2971 C   0  0  0  0  0  0  0  0  0  0  0  0
    0.4074   -2.0498    1.4178 O   0  0  0  0  0  0  0  0  0  0  0  0
   -0.4567   -0.0562    0.5816 C   0  0  0  0  0  0  0  0  0  0  0  0
   -0.3312    1.2271    0.4401 C   0  0  0  0  0  0  0  0  0  0  0  0
   -1.5648   -0.7589    0.0542 N   0  0  0  0  0  0  0  0  0  0  0  0
   -2.6548   -0.2460   -0.6660 C   0  0  0  0  0  0  0  0  0  0  0  0
   -3.7653   -1.1518   -1.1608 C   0  0  0  0  0  0  0  0  0  0  0  0
   -2.8001    0.9454   -0.9497 O   0  0  0  0  0  0  0  0  0  0  0  0
    3.3189   -1.6063    1.8409 H   0  0  0  0  0  0  0  0  0  0  0  0
    3.3416   -0.4479    3.2250 H   0  0  0  0  0  0  0  0  0  0  0  0
    2.1316   -1.7631    3.2375 H   0  0  0  0  0  0  0  0  0  0  0  0
    1.8987    0.7620    1.8156 H   0  0  0  0  0  0  0  0  0  0  0  0
    0.5294    1.7291    0.8571 H   0  0  0  0  0  0  0  0  0  0  0  0
   -1.0240    1.8518   -0.0675 H   0  0  0  0  0  0  0  0  0  0  0  0
   -1.6177   -1.8301    0.2025 H   0  0  0  0  0  0  0  0  0  0  0  0
   -3.7752   -1.0912   -2.2642 H   0  0  0  0  0  0  0  0  0  0  0  0
   -4.7128   -0.8561   -0.6894 H   0  0  0  0  0  0  0  0  0  0  0  0
   -3.4953   -2.1926   -0.8905 H   0  0  0  0  0  0  0  0  0  0  0  0
  1  2  1  0
  1 11  1  0
  1 12  1  0
  1 13  1  0
  2  3  1  0
  2 14  1  0
  3  4  2  0
  3  5  1  0
  5  6  2  3
  5  7  1  0
  6 15  1  0
  6 16  1  0
  7  8  1  0
  7 17  1  0
  8  9  1  0
  8 10  2  0
  9 18  1  0
  9 19  1  0
  9 20  1  0
M  END

> <RosettaParamsInstructions>
M  ROOT 7
M  POLY_N_BB 7
M  POLY_CA_BB 5
M  POLY_C_BB 3
M  POLY_O_BB 4
M  POLY_IGNORE 1 10 9 14 11 12 13 18 19 20
M  POLY_UPPER 2
M  POLY_LOWER 8
M  POLY_CHG 0
M  POLY_PROPERTIES PROTEIN POLYMER ALPHA_AA ALIPHATIC
M  END

$$$$
DHA_new
     RDKit          3D

 20 19  0  0  0  0  0  0  0  0999 V2000
    2.6702   -1.0609    2.5888 C   0  0  0  0  0  0  0  0  0  0  0  0
    1.6795   -0.2364    1.8722 N   0  0  0  0  0  0  0  0  0  0  0  0
    0.5623   -0.8380    1.3087 C   0  0  0  0  0  0  0  0  0  0  0  0
    0.4082   -2.0808    1.4161 O   0  0  0  0  0  0  0  0  0  0  0  0
   -0.4670   -0.0891    0.5814 C   0  0  0  0  0  0  0  0  0  0  0  0
   -0.3075    1.2122    0.4678 C   0  0  0  0  0  0  0  0  0  0  0  0
   -1.5645   -0.7959    0.0464 N   0  0  0  0  0  0  0  0  0  0  0  0
   -2.6314   -0.2602   -0.6690 C   0  0  0  0  0  0  0  0  0  0  0  0
   -3.7477   -1.1663   -1.1833 C   0  0  0  0  0  0  0  0  0  0  0  0
   -2.8061    0.9395   -0.9637 O   0  0  0  0  0  0  0  0  0  0  0  0
    3.4995   -1.2979    1.8733 H   0  0  0  0  0  0  0  0  0  0  0  0
    3.1040   -0.4585    3.3937 H   0  0  0  0  0  0  0  0  0  0  0  0
    2.1365   -1.9531    2.9347 H   0  0  0  0  0  0  0  0  0  0  0  0
    1.8829    0.7693    1.8310 H   0  0  0  0  0  0  0  0  0  0  0  0
   -1.0268    1.8196   -0.0538 H   0  0  0  0  0  0  0  0  0  0  0  0
    0.5449    1.7323    0.8880 H   0  0  0  0  0  0  0  0  0  0  0  0
   -1.5754   -1.8500    0.2082 H   0  0  0  0  0  0  0  0  0  0  0  0
   -3.6704   -2.1134   -0.6230 H   0  0  0  0  0  0  0  0  0  0  0  0
   -3.5941   -1.2461   -2.2581 H   0  0  0  0  0  0  0  0  0  0  0  0
   -4.7037   -0.6784   -0.9187 H   0  0  0  0  0  0  0  0  0  0  0  0
  1  2  1  0
  1 11  1  0
  1 12  1  0
  1 13  1  0
  2  3  1  0
  2 14  1  0
  3  4  2  0
  3  5  1  0
  5  6  2  3
  5  7  1  0
  6 15  1  0
  6 16  1  0
  7  8  1  0
  7 17  1  0
  8  9  1  0
  8 10  2  0
  9 18  1  0
  9 19  1  0
  9 20  1  0
M  END

> <RosettaParamsInstructions>
M  ROOT 7
M  POLY_N_BB 7
M  POLY_CA_BB 5
M  POLY_C_BB 3
M  POLY_O_BB 4
M  POLY_IGNORE 1 10 9 14 11 12 13 18 19 20
M  POLY_UPPER 2
M  POLY_LOWER 8
M  POLY_CHG 0
M  POLY_PROPERTIES PROTEIN POLYMER ALPHA_AA ALIPHATIC
M  END

$$$$
DHA_new
     RDKit          3D

 20 19  0  0  0  0  0  0  0  0999 V2000
    2.6191   -1.0313    2.6716 C   0  0  0  0  0  0  0  0  0  0  0  0
    1.6598   -0.2353    1.9119 N   0  0  0  0  0  0  0  0  0  0  0  0
    0.5382   -0.8273    1.3442 C   0  0  0  0  0  0  0  0  0  0  0  0
    0.3647   -2.0742    1.4996 O   0  0  0  0  0  0  0  0  0  0  0  0
   -0.4383   -0.0565    0.5792 C   0  0  0  0  0  0  0  0  0  0  0  0
   -0.2943    1.2434    0.3945 C   0  0  0  0  0  0  0  0  0  0  0  0
   -1.5438   -0.7650    0.0459 N   0  0  0  0  0  0  0  0  0  0  0  0
   -2.6109   -0.2773   -0.7155 C   0  0  0  0  0  0  0  0  0  0  0  0
   -3.7143   -1.1838   -1.2059 C   0  0  0  0  0  0  0  0  0  0  0  0
   -2.7617    0.9199   -1.0606 O   0  0  0  0  0  0  0  0  0  0  0  0
    2.2265   -1.3146    3.6684 H   0  0  0  0  0  0  0  0  0  0  0  0
    3.5849   -0.5168    2.8035 H   0  0  0  0  0  0  0  0  0  0  0  0
    2.8017   -1.9424    2.0649 H   0  0  0  0  0  0  0  0  0  0  0  0
    1.8744    0.7628    1.8342 H   0  0  0  0  0  0  0  0  0  0  0  0
   -0.9770    1.8692   -0.1586 H   0  0  0  0  0  0  0  0  0  0  0  0
    0.5729    1.7203    0.8294 H   0  0  0  0  0  0  0  0  0  0  0  0
   -1.5701   -1.8129    0.2502 H   0  0  0  0  0  0  0  0  0  0  0  0
   -3.7261   -1.0875   -2.3159 H   0  0  0  0  0  0  0  0  0  0  0  0
   -3.5573   -2.2205   -0.9101 H   0  0  0  0  0  0  0  0  0  0  0  0
   -4.6548   -0.8223   -0.7900 H   0  0  0  0  0  0  0  0  0  0  0  0
  1  2  1  0
  1 11  1  0
  1 12  1  0
  1 13  1  0
  2  3  1  0
  2 14  1  0
  3  4  2  0
  3  5  1  0
  5  6  2  3
  5  7  1  0
  6 15  1  0
  6 16  1  0
  7  8  1  0
  7 17  1  0
  8  9  1  0
  8 10  2  0
  9 18  1  0
  9 19  1  0
  9 20  1  0
M  END

> <RosettaParamsInstructions>
M  ROOT 7
M  POLY_N_BB 7
M  POLY_CA_BB 5
M  POLY_C_BB 3
M  POLY_O_BB 4
M  POLY_IGNORE 1 10 9 14 11 12 13 18 19 20
M  POLY_UPPER 2
M  POLY_LOWER 8
M  POLY_CHG 0
M  POLY_PROPERTIES PROTEIN POLYMER ALPHA_AA ALIPHATIC
M  END

$$$$
DHA_new
     RDKit          3D

 20 19  0  0  0  0  0  0  0  0999 V2000
    2.6612   -1.0433    2.5461 C   0  0  0  0  0  0  0  0  0  0  0  0
    1.6870   -0.1919    1.8562 N   0  0  0  0  0  0  0  0  0  0  0  0
    0.5781   -0.8310    1.3027 C   0  0  0  0  0  0  0  0  0  0  0  0
    0.4299   -2.0956    1.3988 O   0  0  0  0  0  0  0  0  0  0  0  0
   -0.4637   -0.0507    0.5838 C   0  0  0  0  0  0  0  0  0  0  0  0
   -0.3390    1.2430    0.4699 C   0  0  0  0  0  0  0  0  0  0  0  0
   -1.5582   -0.7650    0.0496 N   0  0  0  0  0  0  0  0  0  0  0  0
   -2.6319   -0.2430   -0.6507 C   0  0  0  0  0  0  0  0  0  0  0  0
   -3.7206   -1.1711   -1.1508 C   0  0  0  0  0  0  0  0  0  0  0  0
   -2.7786    0.9584   -0.9093 O   0  0  0  0  0  0  0  0  0  0  0  0
    3.2952   -0.4891    3.2342 H   0  0  0  0  0  0  0  0  0  0  0  0
    2.0831   -1.8049    3.1135 H   0  0  0  0  0  0  0  0  0  0  0  0
    3.2454   -1.5991    1.7895 H   0  0  0  0  0  0  0  0  0  0  0  0
    1.8730    0.8104    1.8200 H   0  0  0  0  0  0  0  0  0  0  0  0
    0.5288    1.7638    0.9000 H   0  0  0  0  0  0  0  0  0  0  0  0
   -1.0718    1.8349   -0.0421 H   0  0  0  0  0  0  0  0  0  0  0  0
   -1.5883   -1.8385    0.1868 H   0  0  0  0  0  0  0  0  0  0  0  0
   -4.6662   -0.6327   -1.0305 H   0  0  0  0  0  0  0  0  0  0  0  0
   -3.4938   -1.4337   -2.2082 H   0  0  0  0  0  0  0  0  0  0  0  0
   -3.6760   -2.0731   -0.5187 H   0  0  0  0  0  0  0  0  0  0  0  0
  1  2  1  0
  1 11  1  0
  1 12  1  0
  1 13  1  0
  2  3  1  0
  2 14  1  0
  3  4  2  0
  3  5  1  0
  5  6  2  3
  5  7  1  0
  6 15  1  0
  6 16  1  0
  7  8  1  0
  7 17  1  0
  8  9  1  0
  8 10  2  0
  9 18  1  0
  9 19  1  0
  9 20  1  0
M  END

> <RosettaParamsInstructions>
M  ROOT 7
M  POLY_N_BB 7
M  POLY_CA_BB 5
M  POLY_C_BB 3
M  POLY_O_BB 4
M  POLY_IGNORE 1 10 9 14 11 12 13 18 19 20
M  POLY_UPPER 2
M  POLY_LOWER 8
M  POLY_CHG 0
M  POLY_PROPERTIES PROTEIN POLYMER ALPHA_AA ALIPHATIC
M  END

$$$$
DHA_new
     RDKit          3D

 20 19  0  0  0  0  0  0  0  0999 V2000
    2.6891   -1.0674    2.6080 C   0  0  0  0  0  0  0  0  0  0  0  0
    1.6845   -0.2607    1.8663 N   0  0  0  0  0  0  0  0  0  0  0  0
    0.5557   -0.8670    1.3213 C   0  0  0  0  0  0  0  0  0  0  0  0
    0.3906   -2.1046    1.4605 O   0  0  0  0  0  0  0  0  0  0  0  0
   -0.4551   -0.0756    0.5790 C   0  0  0  0  0  0  0  0  0  0  0  0
   -0.3159    1.2138    0.4147 C   0  0  0  0  0  0  0  0  0  0  0  0
   -1.5776   -0.7577    0.0521 N   0  0  0  0  0  0  0  0  0  0  0  0
   -2.6498   -0.2337   -0.6751 C   0  0  0  0  0  0  0  0  0  0  0  0
   -3.7636   -1.1601   -1.1504 C   0  0  0  0  0  0  0  0  0  0  0  0
   -2.7278    0.9798   -0.9520 O   0  0  0  0  0  0  0  0  0  0  0  0
    2.2717   -1.1417    3.6325 H   0  0  0  0  0  0  0  0  0  0  0  0
    2.7579   -2.0449    2.0952 H   0  0  0  0  0  0  0  0  0  0  0  0
    3.6553   -0.5233    2.5681 H   0  0  0  0  0  0  0  0  0  0  0  0
    1.8570    0.7581    1.7731 H   0  0  0  0  0  0  0  0  0  0  0  0
    0.5534    1.7434    0.8225 H   0  0  0  0  0  0  0  0  0  0  0  0
   -1.0027    1.8468   -0.1078 H   0  0  0  0  0  0  0  0  0  0  0  0
   -1.6074   -1.8233    0.2377 H   0  0  0  0  0  0  0  0  0  0  0  0
   -3.2290   -2.1135   -1.3955 H   0  0  0  0  0  0  0  0  0  0  0  0
   -4.4995   -1.3158   -0.3649 H   0  0  0  0  0  0  0  0  0  0  0  0
   -4.1934   -0.7047   -2.0444 H   0  0  0  0  0  0  0  0  0  0  0  0
  1  2  1  0
  1 11  1  0
  1 12  1  0
  1 13  1  0
  2  3  1  0
  2 14  1  0
  3  4  2  0
  3  5  1  0
  5  6  2  3
  5  7  1  0
  6 15  1  0
  6 16  1  0
  7  8  1  0
  7 17  1  0
  8  9  1  0
  8 10  2  0
  9 18  1  0
  9 19  1  0
  9 20  1  0
M  END

> <RosettaParamsInstructions>
M  ROOT 7
M  POLY_N_BB 7
M  POLY_CA_BB 5
M  POLY_C_BB 3
M  POLY_O_BB 4
M  POLY_IGNORE 1 10 9 14 11 12 13 18 19 20
M  POLY_UPPER 2
M  POLY_LOWER 8
M  POLY_CHG 0
M  POLY_PROPERTIES PROTEIN POLYMER ALPHA_AA ALIPHATIC
M  END

$$$$
DHA_new
     RDKit          3D

 20 19  0  0  0  0  0  0  0  0999 V2000
    2.6704   -1.0592    2.5797 C   0  0  0  0  0  0  0  0  0  0  0  0
    1.6925   -0.2362    1.8626 N   0  0  0  0  0  0  0  0  0  0  0  0
    0.5587   -0.8429    1.3073 C   0  0  0  0  0  0  0  0  0  0  0  0
    0.4060   -2.0893    1.4386 O   0  0  0  0  0  0  0  0  0  0  0  0
   -0.4487   -0.0858    0.5845 C   0  0  0  0  0  0  0  0  0  0  0  0
   -0.3001    1.2161    0.4409 C   0  0  0  0  0  0  0  0  0  0  0  0
   -1.5547   -0.7834    0.0616 N   0  0  0  0  0  0  0  0  0  0  0  0
   -2.6342   -0.2512   -0.6635 C   0  0  0  0  0  0  0  0  0  0  0  0
   -3.7508   -1.1575   -1.1557 C   0  0  0  0  0  0  0  0  0  0  0  0
   -2.7765    0.9444   -0.9583 O   0  0  0  0  0  0  0  0  0  0  0  0
    3.6628   -0.6748    2.3321 H   0  0  0  0  0  0  0  0  0  0  0  0
    2.5674   -2.0912    2.2272 H   0  0  0  0  0  0  0  0  0  0  0  0
    2.5232   -0.9807    3.6775 H   0  0  0  0  0  0  0  0  0  0  0  0
    1.8883    0.7641    1.8000 H   0  0  0  0  0  0  0  0  0  0  0  0
   -0.9952    1.8612   -0.0795 H   0  0  0  0  0  0  0  0  0  0  0  0
    0.5579    1.7682    0.8447 H   0  0  0  0  0  0  0  0  0  0  0  0
   -1.5790   -1.8345    0.2334 H   0  0  0  0  0  0  0  0  0  0  0  0
   -3.4084   -2.2072   -1.1021 H   0  0  0  0  0  0  0  0  0  0  0  0
   -4.0554   -0.8672   -2.1794 H   0  0  0  0  0  0  0  0  0  0  0  0
   -4.6307   -1.0451   -0.5105 H   0  0  0  0  0  0  0  0  0  0  0  0
  1  2  1  0
  1 11  1  0
  1 12  1  0
  1 13  1  0
  2  3  1  0
  2 14  1  0
  3  4  2  0
  3  5  1  0
  5  6  2  3
  5  7  1  0
  6 15  1  0
  6 16  1  0
  7  8  1  0
  7 17  1  0
  8  9  1  0
  8 10  2  0
  9 18  1  0
  9 19  1  0
  9 20  1  0
M  END

> <RosettaParamsInstructions>
M  ROOT 7
M  POLY_N_BB 7
M  POLY_CA_BB 5
M  POLY_C_BB 3
M  POLY_O_BB 4
M  POLY_IGNORE 1 10 9 14 11 12 13 18 19 20
M  POLY_UPPER 2
M  POLY_LOWER 8
M  POLY_CHG 0
M  POLY_PROPERTIES PROTEIN POLYMER ALPHA_AA ALIPHATIC
M  END

$$$$
DHA_new
     RDKit          3D

 20 19  0  0  0  0  0  0  0  0999 V2000
    2.6492   -1.0661    2.5857 C   0  0  0  0  0  0  0  0  0  0  0  0
    1.6785   -0.2454    1.8623 N   0  0  0  0  0  0  0  0  0  0  0  0
    0.5397   -0.8398    1.3020 C   0  0  0  0  0  0  0  0  0  0  0  0
    0.3663   -2.0898    1.4315 O   0  0  0  0  0  0  0  0  0  0  0  0
   -0.4524   -0.0496    0.5716 C   0  0  0  0  0  0  0  0  0  0  0  0
   -0.2831    1.2432    0.4316 C   0  0  0  0  0  0  0  0  0  0  0  0
   -1.5683   -0.7091    0.0370 N   0  0  0  0  0  0  0  0  0  0  0  0
   -2.6524   -0.2030   -0.6950 C   0  0  0  0  0  0  0  0  0  0  0  0
   -3.7270   -1.1838   -1.1457 C   0  0  0  0  0  0  0  0  0  0  0  0
   -2.7981    1.0056   -1.0048 O   0  0  0  0  0  0  0  0  0  0  0  0
    3.6278   -1.0761    2.0786 H   0  0  0  0  0  0  0  0  0  0  0  0
    2.8047   -0.6972    3.6102 H   0  0  0  0  0  0  0  0  0  0  0  0
    2.2667   -2.0980    2.6591 H   0  0  0  0  0  0  0  0  0  0  0  0
    1.8648    0.7708    1.7837 H   0  0  0  0  0  0  0  0  0  0  0  0
   -1.0192    1.8334   -0.1111 H   0  0  0  0  0  0  0  0  0  0  0  0
    0.5692    1.8023    0.8297 H   0  0  0  0  0  0  0  0  0  0  0  0
   -1.6050   -1.7745    0.2129 H   0  0  0  0  0  0  0  0  0  0  0  0
   -4.6325   -0.6155   -1.4410 H   0  0  0  0  0  0  0  0  0  0  0  0
   -3.2983   -1.7754   -1.9727 H   0  0  0  0  0  0  0  0  0  0  0  0
   -3.9369   -1.8842   -0.2850 H   0  0  0  0  0  0  0  0  0  0  0  0
  1  2  1  0
  1 11  1  0
  1 12  1  0
  1 13  1  0
  2  3  1  0
  2 14  1  0
  3  4  2  0
  3  5  1  0
  5  6  2  3
  5  7  1  0
  6 15  1  0
  6 16  1  0
  7  8  1  0
  7 17  1  0
  8  9  1  0
  8 10  2  0
  9 18  1  0
  9 19  1  0
  9 20  1  0
M  END

> <RosettaParamsInstructions>
M  ROOT 7
M  POLY_N_BB 7
M  POLY_CA_BB 5
M  POLY_C_BB 3
M  POLY_O_BB 4
M  POLY_IGNORE 1 10 9 14 11 12 13 18 19 20
M  POLY_UPPER 2
M  POLY_LOWER 8
M  POLY_CHG 0
M  POLY_PROPERTIES PROTEIN POLYMER ALPHA_AA ALIPHATIC
M  END

$$$$
DHA_new
     RDKit          3D

 20 19  0  0  0  0  0  0  0  0999 V2000
    2.6914   -1.0478    2.5525 C   0  0  0  0  0  0  0  0  0  0  0  0
    1.6936   -0.2355    1.8527 N   0  0  0  0  0  0  0  0  0  0  0  0
    0.5865   -0.8556    1.3076 C   0  0  0  0  0  0  0  0  0  0  0  0
    0.4272   -2.1036    1.4055 O   0  0  0  0  0  0  0  0  0  0  0  0
   -0.4587   -0.0876    0.5871 C   0  0  0  0  0  0  0  0  0  0  0  0
   -0.3412    1.2040    0.4585 C   0  0  0  0  0  0  0  0  0  0  0  0
   -1.5651   -0.7673    0.0516 N   0  0  0  0  0  0  0  0  0  0  0  0
   -2.6329   -0.2448   -0.6445 C   0  0  0  0  0  0  0  0  0  0  0  0
   -3.7543   -1.1516   -1.1541 C   0  0  0  0  0  0  0  0  0  0  0  0
   -2.7951    0.9605   -0.9216 O   0  0  0  0  0  0  0  0  0  0  0  0
    2.1405   -1.8792    3.0334 H   0  0  0  0  0  0  0  0  0  0  0  0
    3.1593   -0.4593    3.3772 H   0  0  0  0  0  0  0  0  0  0  0  0
    3.4831   -1.3940    1.8582 H   0  0  0  0  0  0  0  0  0  0  0  0
    1.8669    0.7701    1.7997 H   0  0  0  0  0  0  0  0  0  0  0  0
    0.5070    1.7149    0.8706 H   0  0  0  0  0  0  0  0  0  0  0  0
   -1.0562    1.7990   -0.0450 H   0  0  0  0  0  0  0  0  0  0  0  0
   -1.5719   -1.8290    0.2092 H   0  0  0  0  0  0  0  0  0  0  0  0
   -3.3536   -2.1800   -1.1450 H   0  0  0  0  0  0  0  0  0  0  0  0
   -4.6510   -1.0376   -0.5378 H   0  0  0  0  0  0  0  0  0  0  0  0
   -3.9819   -0.8280   -2.1751 H   0  0  0  0  0  0  0  0  0  0  0  0
  1  2  1  0
  1 11  1  0
  1 12  1  0
  1 13  1  0
  2  3  1  0
  2 14  1  0
  3  4  2  0
  3  5  1  0
  5  6  2  3
  5  7  1  0
  6 15  1  0
  6 16  1  0
  7  8  1  0
  7 17  1  0
  8  9  1  0
  8 10  2  0
  9 18  1  0
  9 19  1  0
  9 20  1  0
M  END

> <RosettaParamsInstructions>
M  ROOT 7
M  POLY_N_BB 7
M  POLY_CA_BB 5
M  POLY_C_BB 3
M  POLY_O_BB 4
M  POLY_IGNORE 1 10 9 14 11 12 13 18 19 20
M  POLY_UPPER 2
M  POLY_LOWER 8
M  POLY_CHG 0
M  POLY_PROPERTIES PROTEIN POLYMER ALPHA_AA ALIPHATIC
M  END

$$$$
DHA_new
     RDKit          3D

 20 19  0  0  0  0  0  0  0  0999 V2000
    2.6684   -1.0612    2.5892 C   0  0  0  0  0  0  0  0  0  0  0  0
    1.6820   -0.2359    1.8723 N   0  0  0  0  0  0  0  0  0  0  0  0
    0.5565   -0.8411    1.3093 C   0  0  0  0  0  0  0  0  0  0  0  0
    0.4022   -2.0845    1.4232 O   0  0  0  0  0  0  0  0  0  0  0  0
   -0.4663   -0.0992    0.5847 C   0  0  0  0  0  0  0  0  0  0  0  0
   -0.3458    1.1923    0.4429 C   0  0  0  0  0  0  0  0  0  0  0  0
   -1.5899   -0.7831    0.0357 N   0  0  0  0  0  0  0  0  0  0  0  0
   -2.6407   -0.2179   -0.6762 C   0  0  0  0  0  0  0  0  0  0  0  0
   -3.7380   -1.1388   -1.1707 C   0  0  0  0  0  0  0  0  0  0  0  0
   -2.7954    0.9778   -0.9643 O   0  0  0  0  0  0  0  0  0  0  0  0
    3.4864   -1.3431    1.8763 H   0  0  0  0  0  0  0  0  0  0  0  0
    3.1244   -0.4666    3.3877 H   0  0  0  0  0  0  0  0  0  0  0  0
    2.1747   -1.9750    2.9597 H   0  0  0  0  0  0  0  0  0  0  0  0
    1.8853    0.7815    1.8245 H   0  0  0  0  0  0  0  0  0  0  0  0
   -1.0246    1.8581   -0.0665 H   0  0  0  0  0  0  0  0  0  0  0  0
    0.5208    1.7446    0.8622 H   0  0  0  0  0  0  0  0  0  0  0  0
   -1.6217   -1.8363    0.1905 H   0  0  0  0  0  0  0  0  0  0  0  0
   -3.3238   -1.6426   -2.0574 H   0  0  0  0  0  0  0  0  0  0  0  0
   -4.6752   -0.6006   -1.3400 H   0  0  0  0  0  0  0  0  0  0  0  0
   -3.8858   -1.8807   -0.3420 H   0  0  0  0  0  0  0  0  0  0  0  0
  1  2  1  0
  1 11  1  0
  1 12  1  0
  1 13  1  0
  2  3  1  0
  2 14  1  0
  3  4  2  0
  3  5  1  0
  5  6  2  3
  5  7  1  0
  6 15  1  0
  6 16  1  0
  7  8  1  0
  7 17  1  0
  8  9  1  0
  8 10  2  0
  9 18  1  0
  9 19  1  0
  9 20  1  0
M  END

> <RosettaParamsInstructions>
M  ROOT 7
M  POLY_N_BB 7
M  POLY_CA_BB 5
M  POLY_C_BB 3
M  POLY_O_BB 4
M  POLY_IGNORE 1 10 9 14 11 12 13 18 19 20
M  POLY_UPPER 2
M  POLY_LOWER 8
M  POLY_CHG 0
M  POLY_PROPERTIES PROTEIN POLYMER ALPHA_AA ALIPHATIC
M  END

$$$$
DHA_new
     RDKit          3D

 20 19  0  0  0  0  0  0  0  0999 V2000
    2.6713   -1.0499    2.5712 C   0  0  0  0  0  0  0  0  0  0  0  0
    1.6884   -0.2152    1.8591 N   0  0  0  0  0  0  0  0  0  0  0  0
    0.5600   -0.8314    1.3043 C   0  0  0  0  0  0  0  0  0  0  0  0
    0.4311   -2.0927    1.4397 O   0  0  0  0  0  0  0  0  0  0  0  0
   -0.4631   -0.0708    0.5811 C   0  0  0  0  0  0  0  0  0  0  0  0
   -0.3328    1.2152    0.4424 C   0  0  0  0  0  0  0  0  0  0  0  0
   -1.5814   -0.7960    0.0504 N   0  0  0  0  0  0  0  0  0  0  0  0
   -2.6464   -0.2608   -0.6595 C   0  0  0  0  0  0  0  0  0  0  0  0
   -3.7595   -1.1515   -1.1596 C   0  0  0  0  0  0  0  0  0  0  0  0
   -2.8062    0.9422   -0.9534 O   0  0  0  0  0  0  0  0  0  0  0  0
    2.5881   -2.1109    2.2477 H   0  0  0  0  0  0  0  0  0  0  0  0
    3.6898   -0.6897    2.3643 H   0  0  0  0  0  0  0  0  0  0  0  0
    2.4518   -1.0089    3.6402 H   0  0  0  0  0  0  0  0  0  0  0  0
    1.9264    0.7820    1.8314 H   0  0  0  0  0  0  0  0  0  0  0  0
   -1.0102    1.8882   -0.0647 H   0  0  0  0  0  0  0  0  0  0  0  0
    0.5429    1.7210    0.8683 H   0  0  0  0  0  0  0  0  0  0  0  0
   -1.5998   -1.8420    0.2143 H   0  0  0  0  0  0  0  0  0  0  0  0
   -3.4830   -1.4288   -2.2014 H   0  0  0  0  0  0  0  0  0  0  0  0
   -4.7255   -0.6108   -1.1305 H   0  0  0  0  0  0  0  0  0  0  0  0
   -3.7483   -2.0416   -0.5043 H   0  0  0  0  0  0  0  0  0  0  0  0
  1  2  1  0
  1 11  1  0
  1 12  1  0
  1 13  1  0
  2  3  1  0
  2 14  1  0
  3  4  2  0
  3  5  1  0
  5  6  2  3
  5  7  1  0
  6 15  1  0
  6 16  1  0
  7  8  1  0
  7 17  1  0
  8  9  1  0
  8 10  2  0
  9 18  1  0
  9 19  1  0
  9 20  1  0
M  END

> <RosettaParamsInstructions>
M  ROOT 7
M  POLY_N_BB 7
M  POLY_CA_BB 5
M  POLY_C_BB 3
M  POLY_O_BB 4
M  POLY_IGNORE 1 10 9 14 11 12 13 18 19 20
M  POLY_UPPER 2
M  POLY_LOWER 8
M  POLY_CHG 0
M  POLY_PROPERTIES PROTEIN POLYMER ALPHA_AA ALIPHATIC
M  END

$$$$
DHA_new
     RDKit          3D

 20 19  0  0  0  0  0  0  0  0999 V2000
    2.6900   -1.0545    2.5845 C   0  0  0  0  0  0  0  0  0  0  0  0
    1.6943   -0.2523    1.8680 N   0  0  0  0  0  0  0  0  0  0  0  0
    0.5663   -0.8224    1.3012 C   0  0  0  0  0  0  0  0  0  0  0  0
    0.4226   -2.0824    1.4256 O   0  0  0  0  0  0  0  0  0  0  0  0
   -0.4628   -0.0570    0.5712 C   0  0  0  0  0  0  0  0  0  0  0  0
   -0.2959    1.2398    0.4542 C   0  0  0  0  0  0  0  0  0  0  0  0
   -1.5715   -0.7525    0.0365 N   0  0  0  0  0  0  0  0  0  0  0  0
   -2.6524   -0.2516   -0.6800 C   0  0  0  0  0  0  0  0  0  0  0  0
   -3.7607   -1.1639   -1.1785 C   0  0  0  0  0  0  0  0  0  0  0  0
   -2.8204    0.9467   -0.9769 O   0  0  0  0  0  0  0  0  0  0  0  0
    2.2164   -2.0061    2.9021 H   0  0  0  0  0  0  0  0  0  0  0  0
    3.5591   -1.2929    1.9730 H   0  0  0  0  0  0  0  0  0  0  0  0
    3.0213   -0.4846    3.4659 H   0  0  0  0  0  0  0  0  0  0  0  0
    1.8964    0.7528    1.8200 H   0  0  0  0  0  0  0  0  0  0  0  0
   -1.0448    1.8173   -0.0804 H   0  0  0  0  0  0  0  0  0  0  0  0
    0.5711    1.7294    0.8814 H   0  0  0  0  0  0  0  0  0  0  0  0
   -1.5711   -1.8139    0.2126 H   0  0  0  0  0  0  0  0  0  0  0  0
   -3.7656   -1.1764   -2.2784 H   0  0  0  0  0  0  0  0  0  0  0  0
   -4.7193   -0.7533   -0.7812 H   0  0  0  0  0  0  0  0  0  0  0  0
   -3.5796   -2.1743   -0.7799 H   0  0  0  0  0  0  0  0  0  0  0  0
  1  2  1  0
  1 11  1  0
  1 12  1  0
  1 13  1  0
  2  3  1  0
  2 14  1  0
  3  4  2  0
  3  5  1  0
  5  6  2  3
  5  7  1  0
  6 15  1  0
  6 16  1  0
  7  8  1  0
  7 17  1  0
  8  9  1  0
  8 10  2  0
  9 18  1  0
  9 19  1  0
  9 20  1  0
M  END

> <RosettaParamsInstructions>
M  ROOT 7
M  POLY_N_BB 7
M  POLY_CA_BB 5
M  POLY_C_BB 3
M  POLY_O_BB 4
M  POLY_IGNORE 1 10 9 14 11 12 13 18 19 20
M  POLY_UPPER 2
M  POLY_LOWER 8
M  POLY_CHG 0
M  POLY_PROPERTIES PROTEIN POLYMER ALPHA_AA ALIPHATIC
M  END

$$$$
DHA_new
     RDKit          3D

 20 19  0  0  0  0  0  0  0  0999 V2000
    2.6700   -1.0797    2.5770 C   0  0  0  0  0  0  0  0  0  0  0  0
    1.7143   -0.2131    1.8742 N   0  0  0  0  0  0  0  0  0  0  0  0
    0.5815   -0.8165    1.3106 C   0  0  0  0  0  0  0  0  0  0  0  0
    0.4403   -2.0684    1.4348 O   0  0  0  0  0  0  0  0  0  0  0  0
   -0.4658   -0.0729    0.5745 C   0  0  0  0  0  0  0  0  0  0  0  0
   -0.3418    1.2154    0.4344 C   0  0  0  0  0  0  0  0  0  0  0  0
   -1.5530   -0.7869    0.0558 N   0  0  0  0  0  0  0  0  0  0  0  0
   -2.6162   -0.2483   -0.6558 C   0  0  0  0  0  0  0  0  0  0  0  0
   -3.7325   -1.1678   -1.1576 C   0  0  0  0  0  0  0  0  0  0  0  0
   -2.7966    0.9389   -0.9576 O   0  0  0  0  0  0  0  0  0  0  0  0
    2.7083   -2.0531    2.0866 H   0  0  0  0  0  0  0  0  0  0  0  0
    3.6489   -0.5943    2.5333 H   0  0  0  0  0  0  0  0  0  0  0  0
    2.2761   -1.1835    3.6046 H   0  0  0  0  0  0  0  0  0  0  0  0
    1.8921    0.8047    1.8101 H   0  0  0  0  0  0  0  0  0  0  0  0
   -1.0389    1.8414   -0.0772 H   0  0  0  0  0  0  0  0  0  0  0  0
    0.5129    1.7213    0.8512 H   0  0  0  0  0  0  0  0  0  0  0  0
   -1.5620   -1.8263    0.2222 H   0  0  0  0  0  0  0  0  0  0  0  0
   -3.3347   -2.1864   -1.1699 H   0  0  0  0  0  0  0  0  0  0  0  0
   -4.0316   -0.8551   -2.1554 H   0  0  0  0  0  0  0  0  0  0  0  0
   -4.5779   -1.0216   -0.4549 H   0  0  0  0  0  0  0  0  0  0  0  0
  1  2  1  0
  1 11  1  0
  1 12  1  0
  1 13  1  0
  2  3  1  0
  2 14  1  0
  3  4  2  0
  3  5  1  0
  5  6  2  3
  5  7  1  0
  6 15  1  0
  6 16  1  0
  7  8  1  0
  7 17  1  0
  8  9  1  0
  8 10  2  0
  9 18  1  0
  9 19  1  0
  9 20  1  0
M  END

> <RosettaParamsInstructions>
M  ROOT 7
M  POLY_N_BB 7
M  POLY_CA_BB 5
M  POLY_C_BB 3
M  POLY_O_BB 4
M  POLY_IGNORE 1 10 9 14 11 12 13 18 19 20
M  POLY_UPPER 2
M  POLY_LOWER 8
M  POLY_CHG 0
M  POLY_PROPERTIES PROTEIN POLYMER ALPHA_AA ALIPHATIC
M  END

$$$$
DHA_new
     RDKit          3D

 20 19  0  0  0  0  0  0  0  0999 V2000
    2.6239   -1.0396    2.6620 C   0  0  0  0  0  0  0  0  0  0  0  0
    1.6680   -0.2385    1.8725 N   0  0  0  0  0  0  0  0  0  0  0  0
    0.5215   -0.8147    1.3257 C   0  0  0  0  0  0  0  0  0  0  0  0
    0.3215   -2.0392    1.5230 O   0  0  0  0  0  0  0  0  0  0  0  0
   -0.4393   -0.0707    0.5480 C   0  0  0  0  0  0  0  0  0  0  0  0
   -0.2542    1.1988    0.3299 C   0  0  0  0  0  0  0  0  0  0  0  0
   -1.5637   -0.7632    0.0450 N   0  0  0  0  0  0  0  0  0  0  0  0
   -2.6011   -0.2414   -0.7213 C   0  0  0  0  0  0  0  0  0  0  0  0
   -3.7299   -1.1593   -1.1683 C   0  0  0  0  0  0  0  0  0  0  0  0
   -2.7008    0.9438   -1.0905 O   0  0  0  0  0  0  0  0  0  0  0  0
    2.3594   -2.1068    2.5777 H   0  0  0  0  0  0  0  0  0  0  0  0
    3.6359   -0.9040    2.2545 H   0  0  0  0  0  0  0  0  0  0  0  0
    2.5913   -0.7465    3.7225 H   0  0  0  0  0  0  0  0  0  0  0  0
    1.8990    0.7541    1.7543 H   0  0  0  0  0  0  0  0  0  0  0  0
   -0.9370    1.8187   -0.2464 H   0  0  0  0  0  0  0  0  0  0  0  0
    0.6366    1.6960    0.7419 H   0  0  0  0  0  0  0  0  0  0  0  0
   -1.6506   -1.8171    0.2667 H   0  0  0  0  0  0  0  0  0  0  0  0
   -3.4201   -1.6828   -2.0782 H   0  0  0  0  0  0  0  0  0  0  0  0
   -3.9054   -1.8666   -0.3066 H   0  0  0  0  0  0  0  0  0  0  0  0
   -4.6614   -0.5734   -1.2715 H   0  0  0  0  0  0  0  0  0  0  0  0
  1  2  1  0
  1 11  1  0
  1 12  1  0
  1 13  1  0
  2  3  1  0
  2 14  1  0
  3  4  2  0
  3  5  1  0
  5  6  2  3
  5  7  1  0
  6 15  1  0
  6 16  1  0
  7  8  1  0
  7 17  1  0
  8  9  1  0
  8 10  2  0
  9 18  1  0
  9 19  1  0
  9 20  1  0
M  END

> <RosettaParamsInstructions>
M  ROOT 7
M  POLY_N_BB 7
M  POLY_CA_BB 5
M  POLY_C_BB 3
M  POLY_O_BB 4
M  POLY_IGNORE 1 10 9 14 11 12 13 18 19 20
M  POLY_UPPER 2
M  POLY_LOWER 8
M  POLY_CHG 0
M  POLY_PROPERTIES PROTEIN POLYMER ALPHA_AA ALIPHATIC
M  END

$$$$
DHA_new
     RDKit          3D

 20 19  0  0  0  0  0  0  0  0999 V2000
    2.6705   -1.0318    2.6009 C   0  0  0  0  0  0  0  0  0  0  0  0
    1.7106   -0.2216    1.8340 N   0  0  0  0  0  0  0  0  0  0  0  0
    0.5786   -0.8315    1.3389 C   0  0  0  0  0  0  0  0  0  0  0  0
    0.3704   -2.0512    1.5374 O   0  0  0  0  0  0  0  0  0  0  0  0
   -0.4452   -0.0876    0.5523 C   0  0  0  0  0  0  0  0  0  0  0  0
   -0.2795    1.1889    0.3143 C   0  0  0  0  0  0  0  0  0  0  0  0
   -1.5772   -0.7823    0.0793 N   0  0  0  0  0  0  0  0  0  0  0  0
   -2.6198   -0.2610   -0.6599 C   0  0  0  0  0  0  0  0  0  0  0  0
   -3.7875   -1.1192   -1.1107 C   0  0  0  0  0  0  0  0  0  0  0  0
   -2.7174    0.9222   -1.0257 O   0  0  0  0  0  0  0  0  0  0  0  0
    2.7463   -2.0194    2.1055 H   0  0  0  0  0  0  0  0  0  0  0  0
    2.3487   -1.1668    3.6429 H   0  0  0  0  0  0  0  0  0  0  0  0
    3.6806   -0.5758    2.5920 H   0  0  0  0  0  0  0  0  0  0  0  0
    1.9558    0.7541    1.7206 H   0  0  0  0  0  0  0  0  0  0  0  0
    0.6290    1.6796    0.7113 H   0  0  0  0  0  0  0  0  0  0  0  0
   -0.9820    1.7609   -0.2415 H   0  0  0  0  0  0  0  0  0  0  0  0
   -1.6522   -1.8386    0.3122 H   0  0  0  0  0  0  0  0  0  0  0  0
   -3.7537   -1.3176   -2.1798 H   0  0  0  0  0  0  0  0  0  0  0  0
   -4.6987   -0.5634   -0.8098 H   0  0  0  0  0  0  0  0  0  0  0  0
   -3.7837   -2.0900   -0.5733 H   0  0  0  0  0  0  0  0  0  0  0  0
  1  2  1  0
  1 11  1  0
  1 12  1  0
  1 13  1  0
  2  3  1  0
  2 14  1  0
  3  4  2  0
  3  5  1  0
  5  6  2  3
  5  7  1  0
  6 15  1  0
  6 16  1  0
  7  8  1  0
  7 17  1  0
  8  9  1  0
  8 10  2  0
  9 18  1  0
  9 19  1  0
  9 20  1  0
M  END

> <RosettaParamsInstructions>
M  ROOT 7
M  POLY_N_BB 7
M  POLY_CA_BB 5
M  POLY_C_BB 3
M  POLY_O_BB 4
M  POLY_IGNORE 1 10 9 14 11 12 13 18 19 20
M  POLY_UPPER 2
M  POLY_LOWER 8
M  POLY_CHG 0
M  POLY_PROPERTIES PROTEIN POLYMER ALPHA_AA ALIPHATIC
M  END

$$$$
DHA_new
     RDKit          3D

 20 19  0  0  0  0  0  0  0  0999 V2000
    2.6216   -1.0713    2.6603 C   0  0  0  0  0  0  0  0  0  0  0  0
    1.7315   -0.2389    1.8250 N   0  0  0  0  0  0  0  0  0  0  0  0
    0.5596   -0.8009    1.3530 C   0  0  0  0  0  0  0  0  0  0  0  0
    0.2888   -2.0137    1.6538 O   0  0  0  0  0  0  0  0  0  0  0  0
   -0.4166   -0.0869    0.5123 C   0  0  0  0  0  0  0  0  0  0  0  0
   -0.1624    1.1667    0.1863 C   0  0  0  0  0  0  0  0  0  0  0  0
   -1.5932   -0.7555    0.0778 N   0  0  0  0  0  0  0  0  0  0  0  0
   -2.6178   -0.2362   -0.7175 C   0  0  0  0  0  0  0  0  0  0  0  0
   -3.7839   -1.1292   -1.0609 C   0  0  0  0  0  0  0  0  0  0  0  0
   -2.6957    0.9206   -1.2009 O   0  0  0  0  0  0  0  0  0  0  0  0
    3.3584   -1.5811    2.0366 H   0  0  0  0  0  0  0  0  0  0  0  0
    1.9652   -1.7729    3.2341 H   0  0  0  0  0  0  0  0  0  0  0  0
    3.0641   -0.3919    3.4111 H   0  0  0  0  0  0  0  0  0  0  0  0
    2.0415    0.7466    1.6331 H   0  0  0  0  0  0  0  0  0  0  0  0
    0.7408    1.6616    0.5267 H   0  0  0  0  0  0  0  0  0  0  0  0
   -0.7954    1.7966   -0.4220 H   0  0  0  0  0  0  0  0  0  0  0  0
   -1.6925   -1.7660    0.4023 H   0  0  0  0  0  0  0  0  0  0  0  0
   -4.1168   -0.9201   -2.0795 H   0  0  0  0  0  0  0  0  0  0  0  0
   -3.4777   -2.2069   -0.9301 H   0  0  0  0  0  0  0  0  0  0  0  0
   -4.6260   -0.9727   -0.3607 H   0  0  0  0  0  0  0  0  0  0  0  0
  1  2  1  0
  1 11  1  0
  1 12  1  0
  1 13  1  0
  2  3  1  0
  2 14  1  0
  3  4  2  0
  3  5  1  0
  5  6  2  3
  5  7  1  0
  6 15  1  0
  6 16  1  0
  7  8  1  0
  7 17  1  0
  8  9  1  0
  8 10  2  0
  9 18  1  0
  9 19  1  0
  9 20  1  0
M  END

> <RosettaParamsInstructions>
M  ROOT 7
M  POLY_N_BB 7
M  POLY_CA_BB 5
M  POLY_C_BB 3
M  POLY_O_BB 4
M  POLY_IGNORE 1 10 9 14 11 12 13 18 19 20
M  POLY_UPPER 2
M  POLY_LOWER 8
M  POLY_CHG 0
M  POLY_PROPERTIES PROTEIN POLYMER ALPHA_AA ALIPHATIC
M  END

$$$$
DHA_new
     RDKit          3D

 20 19  0  0  0  0  0  0  0  0999 V2000
    2.6483   -1.0098    2.6608 C   0  0  0  0  0  0  0  0  0  0  0  0
    1.6897   -0.2149    1.8665 N   0  0  0  0  0  0  0  0  0  0  0  0
    0.5480   -0.8272    1.3401 C   0  0  0  0  0  0  0  0  0  0  0  0
    0.3312   -2.0609    1.5410 O   0  0  0  0  0  0  0  0  0  0  0  0
   -0.4371   -0.0942    0.5464 C   0  0  0  0  0  0  0  0  0  0  0  0
   -0.2325    1.1777    0.3279 C   0  0  0  0  0  0  0  0  0  0  0  0
   -1.5783   -0.7762    0.0391 N   0  0  0  0  0  0  0  0  0  0  0  0
   -2.6243   -0.2526   -0.7351 C   0  0  0  0  0  0  0  0  0  0  0  0
   -3.7610   -1.1627   -1.1782 C   0  0  0  0  0  0  0  0  0  0  0  0
   -2.7158    0.9343   -1.1100 O   0  0  0  0  0  0  0  0  0  0  0  0
    3.3207   -1.5825    1.9883 H   0  0  0  0  0  0  0  0  0  0  0  0
    3.1774   -0.3942    3.3901 H   0  0  0  0  0  0  0  0  0  0  0  0
    2.0312   -1.7440    3.2179 H   0  0  0  0  0  0  0  0  0  0  0  0
    1.9505    0.7650    1.7605 H   0  0  0  0  0  0  0  0  0  0  0  0
    0.6384    1.6925    0.7166 H   0  0  0  0  0  0  0  0  0  0  0  0
   -0.8943    1.8025   -0.2410 H   0  0  0  0  0  0  0  0  0  0  0  0
   -1.6327   -1.8165    0.2862 H   0  0  0  0  0  0  0  0  0  0  0  0
   -4.1840   -0.8314   -2.1298 H   0  0  0  0  0  0  0  0  0  0  0  0
   -3.3657   -2.1978   -1.1844 H   0  0  0  0  0  0  0  0  0  0  0  0
   -4.5163   -1.0594   -0.3621 H   0  0  0  0  0  0  0  0  0  0  0  0
  1  2  1  0
  1 11  1  0
  1 12  1  0
  1 13  1  0
  2  3  1  0
  2 14  1  0
  3  4  2  0
  3  5  1  0
  5  6  2  3
  5  7  1  0
  6 15  1  0
  6 16  1  0
  7  8  1  0
  7 17  1  0
  8  9  1  0
  8 10  2  0
  9 18  1  0
  9 19  1  0
  9 20  1  0
M  END

> <RosettaParamsInstructions>
M  ROOT 7
M  POLY_N_BB 7
M  POLY_CA_BB 5
M  POLY_C_BB 3
M  POLY_O_BB 4
M  POLY_IGNORE 1 10 9 14 11 12 13 18 19 20
M  POLY_UPPER 2
M  POLY_LOWER 8
M  POLY_CHG 0
M  POLY_PROPERTIES PROTEIN POLYMER ALPHA_AA ALIPHATIC
M  END

$$$$
DHA_new
     RDKit          3D

 20 19  0  0  0  0  0  0  0  0999 V2000
    2.6543   -1.0665    2.5766 C   0  0  0  0  0  0  0  0  0  0  0  0
    1.6628   -0.2153    1.9022 N   0  0  0  0  0  0  0  0  0  0  0  0
    0.5535   -0.8460    1.2965 C   0  0  0  0  0  0  0  0  0  0  0  0
    0.4312   -2.1194    1.3428 O   0  0  0  0  0  0  0  0  0  0  0  0
   -0.4588   -0.0455    0.6143 C   0  0  0  0  0  0  0  0  0  0  0  0
   -0.3594    1.2512    0.5521 C   0  0  0  0  0  0  0  0  0  0  0  0
   -1.5489   -0.7285    0.0252 N   0  0  0  0  0  0  0  0  0  0  0  0
   -2.6360   -0.2204   -0.6742 C   0  0  0  0  0  0  0  0  0  0  0  0
   -3.6757   -1.1598   -1.2091 C   0  0  0  0  0  0  0  0  0  0  0  0
   -2.8518    0.9864   -0.9170 O   0  0  0  0  0  0  0  0  0  0  0  0
    3.0505   -0.5550    3.4802 H   0  0  0  0  0  0  0  0  0  0  0  0
    3.4617   -1.2707    1.8532 H   0  0  0  0  0  0  0  0  0  0  0  0
    2.1593   -1.9867    2.8983 H   0  0  0  0  0  0  0  0  0  0  0  0
    1.8725    0.7858    1.9338 H   0  0  0  0  0  0  0  0  0  0  0  0
   -1.1008    1.8410    0.0522 H   0  0  0  0  0  0  0  0  0  0  0  0
    0.4772    1.7852    1.0034 H   0  0  0  0  0  0  0  0  0  0  0  0
   -1.5514   -1.8107    0.1254 H   0  0  0  0  0  0  0  0  0  0  0  0
   -3.1614   -2.0894   -1.5645 H   0  0  0  0  0  0  0  0  0  0  0  0
   -4.4015   -1.4430   -0.4472 H   0  0  0  0  0  0  0  0  0  0  0  0
   -4.1837   -0.7448   -2.1033 H   0  0  0  0  0  0  0  0  0  0  0  0
  1  2  1  0
  1 11  1  0
  1 12  1  0
  1 13  1  0
  2  3  1  0
  2 14  1  0
  3  4  2  0
  3  5  1  0
  5  6  2  3
  5  7  1  0
  6 15  1  0
  6 16  1  0
  7  8  1  0
  7 17  1  0
  8  9  1  0
  8 10  2  0
  9 18  1  0
  9 19  1  0
  9 20  1  0
M  END

> <RosettaParamsInstructions>
M  ROOT 7
M  POLY_N_BB 7
M  POLY_CA_BB 5
M  POLY_C_BB 3
M  POLY_O_BB 4
M  POLY_IGNORE 1 10 9 14 11 12 13 18 19 20
M  POLY_UPPER 2
M  POLY_LOWER 8
M  POLY_CHG 0
M  POLY_PROPERTIES PROTEIN POLYMER ALPHA_AA ALIPHATIC
M  END

$$$$
DHA_new
     RDKit          3D

 20 19  0  0  0  0  0  0  0  0999 V2000
    2.6962   -1.0587    2.5718 C   0  0  0  0  0  0  0  0  0  0  0  0
    1.6979   -0.2376    1.8822 N   0  0  0  0  0  0  0  0  0  0  0  0
    0.5749   -0.8110    1.2983 C   0  0  0  0  0  0  0  0  0  0  0  0
    0.4516   -2.0828    1.3890 O   0  0  0  0  0  0  0  0  0  0  0  0
   -0.4854   -0.0583    0.5812 C   0  0  0  0  0  0  0  0  0  0  0  0
   -0.3753    1.2454    0.4788 C   0  0  0  0  0  0  0  0  0  0  0  0
   -1.5657   -0.7783    0.0411 N   0  0  0  0  0  0  0  0  0  0  0  0
   -2.6343   -0.2328   -0.6541 C   0  0  0  0  0  0  0  0  0  0  0  0
   -3.7270   -1.1725   -1.1735 C   0  0  0  0  0  0  0  0  0  0  0  0
   -2.8588    0.9578   -0.9380 O   0  0  0  0  0  0  0  0  0  0  0  0
    2.4560   -1.1408    3.6415 H   0  0  0  0  0  0  0  0  0  0  0  0
    2.7133   -2.0852    2.1267 H   0  0  0  0  0  0  0  0  0  0  0  0
    3.6972   -0.6200    2.3961 H   0  0  0  0  0  0  0  0  0  0  0  0
    1.8842    0.7705    1.8622 H   0  0  0  0  0  0  0  0  0  0  0  0
   -1.1096    1.8288   -0.0257 H   0  0  0  0  0  0  0  0  0  0  0  0
    0.5044    1.7285    0.9318 H   0  0  0  0  0  0  0  0  0  0  0  0
   -1.5603   -1.8342    0.1795 H   0  0  0  0  0  0  0  0  0  0  0  0
   -3.4698   -2.2179   -0.9223 H   0  0  0  0  0  0  0  0  0  0  0  0
   -4.6457   -0.8324   -0.6629 H   0  0  0  0  0  0  0  0  0  0  0  0
   -3.8505   -1.0206   -2.2630 H   0  0  0  0  0  0  0  0  0  0  0  0
  1  2  1  0
  1 11  1  0
  1 12  1  0
  1 13  1  0
  2  3  1  0
  2 14  1  0
  3  4  2  0
  3  5  1  0
  5  6  2  3
  5  7  1  0
  6 15  1  0
  6 16  1  0
  7  8  1  0
  7 17  1  0
  8  9  1  0
  8 10  2  0
  9 18  1  0
  9 19  1  0
  9 20  1  0
M  END

> <RosettaParamsInstructions>
M  ROOT 7
M  POLY_N_BB 7
M  POLY_CA_BB 5
M  POLY_C_BB 3
M  POLY_O_BB 4
M  POLY_IGNORE 1 10 9 14 11 12 13 18 19 20
M  POLY_UPPER 2
M  POLY_LOWER 8
M  POLY_CHG 0
M  POLY_PROPERTIES PROTEIN POLYMER ALPHA_AA ALIPHATIC
M  END

$$$$
DHA_new
     RDKit          3D

 20 19  0  0  0  0  0  0  0  0999 V2000
    2.6805   -1.0498    2.5634 C   0  0  0  0  0  0  0  0  0  0  0  0
    1.6621   -0.2383    1.9028 N   0  0  0  0  0  0  0  0  0  0  0  0
    0.5595   -0.8401    1.2813 C   0  0  0  0  0  0  0  0  0  0  0  0
    0.4529   -2.1096    1.2978 O   0  0  0  0  0  0  0  0  0  0  0  0
   -0.4658   -0.0635    0.6187 C   0  0  0  0  0  0  0  0  0  0  0  0
   -0.3876    1.2253    0.5840 C   0  0  0  0  0  0  0  0  0  0  0  0
   -1.5430   -0.7599    0.0184 N   0  0  0  0  0  0  0  0  0  0  0  0
   -2.6425   -0.2260   -0.6731 C   0  0  0  0  0  0  0  0  0  0  0  0
   -3.6898   -1.1578   -1.2407 C   0  0  0  0  0  0  0  0  0  0  0  0
   -2.8841    0.9831   -0.8941 O   0  0  0  0  0  0  0  0  0  0  0  0
    2.5416   -0.9368    3.6560 H   0  0  0  0  0  0  0  0  0  0  0  0
    3.6875   -0.6930    2.2629 H   0  0  0  0  0  0  0  0  0  0  0  0
    2.5944   -2.1156    2.3211 H   0  0  0  0  0  0  0  0  0  0  0  0
    1.8164    0.7824    1.9305 H   0  0  0  0  0  0  0  0  0  0  0  0
    0.4288    1.7543    1.0388 H   0  0  0  0  0  0  0  0  0  0  0  0
   -1.1334    1.8201    0.1002 H   0  0  0  0  0  0  0  0  0  0  0  0
   -1.5552   -1.8438    0.0797 H   0  0  0  0  0  0  0  0  0  0  0  0
   -4.6925   -0.7031   -1.1593 H   0  0  0  0  0  0  0  0  0  0  0  0
   -3.6347   -2.1109   -0.6556 H   0  0  0  0  0  0  0  0  0  0  0  0
   -3.4016   -1.3692   -2.2919 H   0  0  0  0  0  0  0  0  0  0  0  0
  1  2  1  0
  1 11  1  0
  1 12  1  0
  1 13  1  0
  2  3  1  0
  2 14  1  0
  3  4  2  0
  3  5  1  0
  5  6  2  3
  5  7  1  0
  6 15  1  0
  6 16  1  0
  7  8  1  0
  7 17  1  0
  8  9  1  0
  8 10  2  0
  9 18  1  0
  9 19  1  0
  9 20  1  0
M  END

> <RosettaParamsInstructions>
M  ROOT 7
M  POLY_N_BB 7
M  POLY_CA_BB 5
M  POLY_C_BB 3
M  POLY_O_BB 4
M  POLY_IGNORE 1 10 9 14 11 12 13 18 19 20
M  POLY_UPPER 2
M  POLY_LOWER 8
M  POLY_CHG 0
M  POLY_PROPERTIES PROTEIN POLYMER ALPHA_AA ALIPHATIC
M  END

$$$$
DHA_new
     RDKit          3D

 20 19  0  0  0  0  0  0  0  0999 V2000
    2.6717   -1.0539    2.5885 C   0  0  0  0  0  0  0  0  0  0  0  0
    1.6492   -0.2215    1.9100 N   0  0  0  0  0  0  0  0  0  0  0  0
    0.5653   -0.8456    1.2931 C   0  0  0  0  0  0  0  0  0  0  0  0
    0.4776   -2.1220    1.3265 O   0  0  0  0  0  0  0  0  0  0  0  0
   -0.4778   -0.0689    0.6058 C   0  0  0  0  0  0  0  0  0  0  0  0
   -0.3929    1.2218    0.5697 C   0  0  0  0  0  0  0  0  0  0  0  0
   -1.5462   -0.7831    0.0045 N   0  0  0  0  0  0  0  0  0  0  0  0
   -2.6185   -0.2507   -0.6839 C   0  0  0  0  0  0  0  0  0  0  0  0
   -3.6768   -1.1504   -1.2665 C   0  0  0  0  0  0  0  0  0  0  0  0
   -2.8071    0.9647   -0.8812 O   0  0  0  0  0  0  0  0  0  0  0  0
    2.7420   -0.7056    3.6324 H   0  0  0  0  0  0  0  0  0  0  0  0
    3.6519   -0.9100    2.1059 H   0  0  0  0  0  0  0  0  0  0  0  0
    2.4144   -2.1184    2.5279 H   0  0  0  0  0  0  0  0  0  0  0  0
    1.7734    0.7886    1.9169 H   0  0  0  0  0  0  0  0  0  0  0  0
    0.4426    1.7288    1.0435 H   0  0  0  0  0  0  0  0  0  0  0  0
   -1.1151    1.8751    0.0861 H   0  0  0  0  0  0  0  0  0  0  0  0
   -1.5265   -1.8520    0.0891 H   0  0  0  0  0  0  0  0  0  0  0  0
   -3.2663   -2.1489   -1.5140 H   0  0  0  0  0  0  0  0  0  0  0  0
   -4.4144   -1.3034   -0.4612 H   0  0  0  0  0  0  0  0  0  0  0  0
   -4.1529   -0.6966   -2.1520 H   0  0  0  0  0  0  0  0  0  0  0  0
  1  2  1  0
  1 11  1  0
  1 12  1  0
  1 13  1  0
  2  3  1  0
  2 14  1  0
  3  4  2  0
  3  5  1  0
  5  6  2  3
  5  7  1  0
  6 15  1  0
  6 16  1  0
  7  8  1  0
  7 17  1  0
  8  9  1  0
  8 10  2  0
  9 18  1  0
  9 19  1  0
  9 20  1  0
M  END

> <RosettaParamsInstructions>
M  ROOT 7
M  POLY_N_BB 7
M  POLY_CA_BB 5
M  POLY_C_BB 3
M  POLY_O_BB 4
M  POLY_IGNORE 1 10 9 14 11 12 13 18 19 20
M  POLY_UPPER 2
M  POLY_LOWER 8
M  POLY_CHG 0
M  POLY_PROPERTIES PROTEIN POLYMER ALPHA_AA ALIPHATIC
M  END

$$$$
DHA_new
     RDKit          3D

 20 19  0  0  0  0  0  0  0  0999 V2000
    2.6709   -1.0686    2.5712 C   0  0  0  0  0  0  0  0  0  0  0  0
    1.6699   -0.2131    1.9112 N   0  0  0  0  0  0  0  0  0  0  0  0
    0.5734   -0.8159    1.2982 C   0  0  0  0  0  0  0  0  0  0  0  0
    0.4668   -2.0781    1.3244 O   0  0  0  0  0  0  0  0  0  0  0  0
   -0.4839   -0.0444    0.6104 C   0  0  0  0  0  0  0  0  0  0  0  0
   -0.4015    1.2656    0.5663 C   0  0  0  0  0  0  0  0  0  0  0  0
   -1.5562   -0.7497    0.0192 N   0  0  0  0  0  0  0  0  0  0  0  0
   -2.6597   -0.2484   -0.6769 C   0  0  0  0  0  0  0  0  0  0  0  0
   -3.7072   -1.1647   -1.2383 C   0  0  0  0  0  0  0  0  0  0  0  0
   -2.8466    0.9675   -0.8756 O   0  0  0  0  0  0  0  0  0  0  0  0
    2.6696   -0.8942    3.6452 H   0  0  0  0  0  0  0  0  0  0  0  0
    3.6822   -0.8526    2.1742 H   0  0  0  0  0  0  0  0  0  0  0  0
    2.4451   -2.1379    2.3905 H   0  0  0  0  0  0  0  0  0  0  0  0
    1.8531    0.8080    1.9479 H   0  0  0  0  0  0  0  0  0  0  0  0
    0.4466    1.7712    1.0377 H   0  0  0  0  0  0  0  0  0  0  0  0
   -1.1371    1.8747    0.0827 H   0  0  0  0  0  0  0  0  0  0  0  0
   -1.5149   -1.8259    0.1207 H   0  0  0  0  0  0  0  0  0  0  0  0
   -4.1008   -0.7361   -2.1806 H   0  0  0  0  0  0  0  0  0  0  0  0
   -4.4903   -1.3855   -0.5129 H   0  0  0  0  0  0  0  0  0  0  0  0
   -3.1858   -2.1242   -1.4746 H   0  0  0  0  0  0  0  0  0  0  0  0
  1  2  1  0
  1 11  1  0
  1 12  1  0
  1 13  1  0
  2  3  1  0
  2 14  1  0
  3  4  2  0
  3  5  1  0
  5  6  2  3
  5  7  1  0
  6 15  1  0
  6 16  1  0
  7  8  1  0
  7 17  1  0
  8  9  1  0
  8 10  2  0
  9 18  1  0
  9 19  1  0
  9 20  1  0
M  END

> <RosettaParamsInstructions>
M  ROOT 7
M  POLY_N_BB 7
M  POLY_CA_BB 5
M  POLY_C_BB 3
M  POLY_O_BB 4
M  POLY_IGNORE 1 10 9 14 11 12 13 18 19 20
M  POLY_UPPER 2
M  POLY_LOWER 8
M  POLY_CHG 0
M  POLY_PROPERTIES PROTEIN POLYMER ALPHA_AA ALIPHATIC
M  END

$$$$
DHA_new
     RDKit          3D

 20 19  0  0  0  0  0  0  0  0999 V2000
    2.6477   -1.0607    2.6680 C   0  0  0  0  0  0  0  0  0  0  0  0
    1.7102   -0.2454    1.8877 N   0  0  0  0  0  0  0  0  0  0  0  0
    0.5413   -0.7883    1.3309 C   0  0  0  0  0  0  0  0  0  0  0  0
    0.3523   -2.0374    1.5508 O   0  0  0  0  0  0  0  0  0  0  0  0
   -0.4471   -0.0561    0.5423 C   0  0  0  0  0  0  0  0  0  0  0  0
   -0.2727    1.2147    0.3078 C   0  0  0  0  0  0  0  0  0  0  0  0
   -1.5711   -0.7386    0.0497 N   0  0  0  0  0  0  0  0  0  0  0  0
   -2.6330   -0.2494   -0.7183 C   0  0  0  0  0  0  0  0  0  0  0  0
   -3.7492   -1.1820   -1.1393 C   0  0  0  0  0  0  0  0  0  0  0  0
   -2.7648    0.9285   -1.1117 O   0  0  0  0  0  0  0  0  0  0  0  0
    2.9134   -0.4513    3.5572 H   0  0  0  0  0  0  0  0  0  0  0  0
    2.1443   -2.0181    2.9558 H   0  0  0  0  0  0  0  0  0  0  0  0
    3.5427   -1.3288    2.0929 H   0  0  0  0  0  0  0  0  0  0  0  0
    1.9626    0.7430    1.7753 H   0  0  0  0  0  0  0  0  0  0  0  0
   -0.9485    1.8463   -0.2664 H   0  0  0  0  0  0  0  0  0  0  0  0
    0.6159    1.7072    0.7097 H   0  0  0  0  0  0  0  0  0  0  0  0
   -1.6220   -1.7730    0.2952 H   0  0  0  0  0  0  0  0  0  0  0  0
   -4.0951   -0.8994   -2.1441 H   0  0  0  0  0  0  0  0  0  0  0  0
   -3.3312   -2.2036   -1.1569 H   0  0  0  0  0  0  0  0  0  0  0  0
   -4.6022   -1.0597   -0.4459 H   0  0  0  0  0  0  0  0  0  0  0  0
  1  2  1  0
  1 11  1  0
  1 12  1  0
  1 13  1  0
  2  3  1  0
  2 14  1  0
  3  4  2  0
  3  5  1  0
  5  6  2  3
  5  7  1  0
  6 15  1  0
  6 16  1  0
  7  8  1  0
  7 17  1  0
  8  9  1  0
  8 10  2  0
  9 18  1  0
  9 19  1  0
  9 20  1  0
M  END

> <RosettaParamsInstructions>
M  ROOT 7
M  POLY_N_BB 7
M  POLY_CA_BB 5
M  POLY_C_BB 3
M  POLY_O_BB 4
M  POLY_IGNORE 1 10 9 14 11 12 13 18 19 20
M  POLY_UPPER 2
M  POLY_LOWER 8
M  POLY_CHG 0
M  POLY_PROPERTIES PROTEIN POLYMER ALPHA_AA ALIPHATIC
M  END

$$$$
DHA_new
     RDKit          3D

 20 19  0  0  0  0  0  0  0  0999 V2000
    2.6658   -1.0658    2.5759 C   0  0  0  0  0  0  0  0  0  0  0  0
    1.6483   -0.2300    1.9068 N   0  0  0  0  0  0  0  0  0  0  0  0
    0.5463   -0.8447    1.2938 C   0  0  0  0  0  0  0  0  0  0  0  0
    0.4421   -2.0915    1.3232 O   0  0  0  0  0  0  0  0  0  0  0  0
   -0.4803   -0.0682    0.6237 C   0  0  0  0  0  0  0  0  0  0  0  0
   -0.3893    1.2392    0.5820 C   0  0  0  0  0  0  0  0  0  0  0  0
   -1.5593   -0.7705    0.0310 N   0  0  0  0  0  0  0  0  0  0  0  0
   -2.6569   -0.2363   -0.6637 C   0  0  0  0  0  0  0  0  0  0  0  0
   -3.6943   -1.1718   -1.2144 C   0  0  0  0  0  0  0  0  0  0  0  0
   -2.8597    0.9807   -0.8742 O   0  0  0  0  0  0  0  0  0  0  0  0
    2.8072   -0.7318    3.6127 H   0  0  0  0  0  0  0  0  0  0  0  0
    3.6233   -0.8729    2.0401 H   0  0  0  0  0  0  0  0  0  0  0  0
    2.3700   -2.1287    2.4904 H   0  0  0  0  0  0  0  0  0  0  0  0
    1.8598    0.7846    1.9586 H   0  0  0  0  0  0  0  0  0  0  0  0
   -1.0968    1.8801    0.1124 H   0  0  0  0  0  0  0  0  0  0  0  0
    0.4532    1.7335    1.0488 H   0  0  0  0  0  0  0  0  0  0  0  0
   -1.5320   -1.8341    0.1255 H   0  0  0  0  0  0  0  0  0  0  0  0
   -4.6699   -0.6852   -1.3363 H   0  0  0  0  0  0  0  0  0  0  0  0
   -3.7559   -2.1075   -0.6513 H   0  0  0  0  0  0  0  0  0  0  0  0
   -3.3284   -1.4313   -2.2440 H   0  0  0  0  0  0  0  0  0  0  0  0
  1  2  1  0
  1 11  1  0
  1 12  1  0
  1 13  1  0
  2  3  1  0
  2 14  1  0
  3  4  2  0
  3  5  1  0
  5  6  2  3
  5  7  1  0
  6 15  1  0
  6 16  1  0
  7  8  1  0
  7 17  1  0
  8  9  1  0
  8 10  2  0
  9 18  1  0
  9 19  1  0
  9 20  1  0
M  END

> <RosettaParamsInstructions>
M  ROOT 7
M  POLY_N_BB 7
M  POLY_CA_BB 5
M  POLY_C_BB 3
M  POLY_O_BB 4
M  POLY_IGNORE 1 10 9 14 11 12 13 18 19 20
M  POLY_UPPER 2
M  POLY_LOWER 8
M  POLY_CHG 0
M  POLY_PROPERTIES PROTEIN POLYMER ALPHA_AA ALIPHATIC
M  END

$$$$
DHA_new
     RDKit          3D

 20 19  0  0  0  0  0  0  0  0999 V2000
    2.6128   -1.0419    2.6804 C   0  0  0  0  0  0  0  0  0  0  0  0
    1.6860   -0.2103    1.8776 N   0  0  0  0  0  0  0  0  0  0  0  0
    0.5536   -0.8571    1.3775 C   0  0  0  0  0  0  0  0  0  0  0  0
    0.3204   -2.0693    1.5864 O   0  0  0  0  0  0  0  0  0  0  0  0
   -0.4353   -0.0973    0.5578 C   0  0  0  0  0  0  0  0  0  0  0  0
   -0.2465    1.1651    0.3074 C   0  0  0  0  0  0  0  0  0  0  0  0
   -1.5717   -0.7724    0.0633 N   0  0  0  0  0  0  0  0  0  0  0  0
   -2.5900   -0.2506   -0.7055 C   0  0  0  0  0  0  0  0  0  0  0  0
   -3.7290   -1.1583   -1.1343 C   0  0  0  0  0  0  0  0  0  0  0  0
   -2.7116    0.9266   -1.1196 O   0  0  0  0  0  0  0  0  0  0  0  0
    2.0167   -1.6843    3.3768 H   0  0  0  0  0  0  0  0  0  0  0  0
    3.1915   -1.6655    1.9596 H   0  0  0  0  0  0  0  0  0  0  0  0
    3.3133   -0.3754    3.1965 H   0  0  0  0  0  0  0  0  0  0  0  0
    1.9104    0.7895    1.7247 H   0  0  0  0  0  0  0  0  0  0  0  0
   -0.9303    1.7444   -0.2750 H   0  0  0  0  0  0  0  0  0  0  0  0
    0.6224    1.7311    0.6711 H   0  0  0  0  0  0  0  0  0  0  0  0
   -1.6478   -1.8120    0.3176 H   0  0  0  0  0  0  0  0  0  0  0  0
   -3.6329   -1.3223   -2.2150 H   0  0  0  0  0  0  0  0  0  0  0  0
   -3.6769   -2.0928   -0.5771 H   0  0  0  0  0  0  0  0  0  0  0  0
   -4.6616   -0.5996   -0.9295 H   0  0  0  0  0  0  0  0  0  0  0  0
  1  2  1  0
  1 11  1  0
  1 12  1  0
  1 13  1  0
  2  3  1  0
  2 14  1  0
  3  4  2  0
  3  5  1  0
  5  6  2  3
  5  7  1  0
  6 15  1  0
  6 16  1  0
  7  8  1  0
  7 17  1  0
  8  9  1  0
  8 10  2  0
  9 18  1  0
  9 19  1  0
  9 20  1  0
M  END

> <RosettaParamsInstructions>
M  ROOT 7
M  POLY_N_BB 7
M  POLY_CA_BB 5
M  POLY_C_BB 3
M  POLY_O_BB 4
M  POLY_IGNORE 1 10 9 14 11 12 13 18 19 20
M  POLY_UPPER 2
M  POLY_LOWER 8
M  POLY_CHG 0
M  POLY_PROPERTIES PROTEIN POLYMER ALPHA_AA ALIPHATIC
M  END

$$$$
DHA_new
     RDKit          3D

 20 19  0  0  0  0  0  0  0  0999 V2000
    2.7427   -1.0426    2.4937 C   0  0  0  0  0  0  0  0  0  0  0  0
    1.6717   -0.2265    1.9006 N   0  0  0  0  0  0  0  0  0  0  0  0
    0.6070   -0.8395    1.2539 C   0  0  0  0  0  0  0  0  0  0  0  0
    0.5800   -2.1129    1.1873 O   0  0  0  0  0  0  0  0  0  0  0  0
   -0.4965   -0.0859    0.6392 C   0  0  0  0  0  0  0  0  0  0  0  0
   -0.4834    1.2115    0.6987 C   0  0  0  0  0  0  0  0  0  0  0  0
   -1.5386   -0.7931    0.0021 N   0  0  0  0  0  0  0  0  0  0  0  0
   -2.6530   -0.2467   -0.6273 C   0  0  0  0  0  0  0  0  0  0  0  0
   -3.7005   -1.1428   -1.2751 C   0  0  0  0  0  0  0  0  0  0  0  0
   -2.9297    0.9666   -0.7405 O   0  0  0  0  0  0  0  0  0  0  0  0
    2.9358   -0.6104    3.4946 H   0  0  0  0  0  0  0  0  0  0  0  0
    3.6436   -1.0465    1.8821 H   0  0  0  0  0  0  0  0  0  0  0  0
    2.3846   -2.1072    2.6057 H   0  0  0  0  0  0  0  0  0  0  0  0
    1.7781    0.7826    2.0031 H   0  0  0  0  0  0  0  0  0  0  0  0
   -1.2611    1.8586    0.2702 H   0  0  0  0  0  0  0  0  0  0  0  0
    0.3503    1.7259    1.2065 H   0  0  0  0  0  0  0  0  0  0  0  0
   -1.4634   -1.8700    0.0030 H   0  0  0  0  0  0  0  0  0  0  0  0
   -4.6067   -1.0519   -0.6407 H   0  0  0  0  0  0  0  0  0  0  0  0
   -3.8585   -0.8385   -2.3212 H   0  0  0  0  0  0  0  0  0  0  0  0
   -3.3090   -2.1831   -1.2952 H   0  0  0  0  0  0  0  0  0  0  0  0
  1  2  1  0
  1 11  1  0
  1 12  1  0
  1 13  1  0
  2  3  1  0
  2 14  1  0
  3  4  2  0
  3  5  1  0
  5  6  2  3
  5  7  1  0
  6 15  1  0
  6 16  1  0
  7  8  1  0
  7 17  1  0
  8  9  1  0
  8 10  2  0
  9 18  1  0
  9 19  1  0
  9 20  1  0
M  END

> <RosettaParamsInstructions>
M  ROOT 7
M  POLY_N_BB 7
M  POLY_CA_BB 5
M  POLY_C_BB 3
M  POLY_O_BB 4
M  POLY_IGNORE 1 10 9 14 11 12 13 18 19 20
M  POLY_UPPER 2
M  POLY_LOWER 8
M  POLY_CHG 0
M  POLY_PROPERTIES PROTEIN POLYMER ALPHA_AA ALIPHATIC
M  END

$$$$
DHA_new
     RDKit          3D

 20 19  0  0  0  0  0  0  0  0999 V2000
    2.7170   -1.0274    2.5817 C   0  0  0  0  0  0  0  0  0  0  0  0
    1.6607   -0.2578    1.9064 N   0  0  0  0  0  0  0  0  0  0  0  0
    0.5715   -0.8764    1.2887 C   0  0  0  0  0  0  0  0  0  0  0  0
    0.4654   -2.1545    1.2963 O   0  0  0  0  0  0  0  0  0  0  0  0
   -0.4763   -0.1116    0.6188 C   0  0  0  0  0  0  0  0  0  0  0  0
   -0.3957    1.1964    0.5943 C   0  0  0  0  0  0  0  0  0  0  0  0
   -1.5639   -0.7795    0.0048 N   0  0  0  0  0  0  0  0  0  0  0  0
   -2.6476   -0.2308   -0.6745 C   0  0  0  0  0  0  0  0  0  0  0  0
   -3.7124   -1.1462   -1.2612 C   0  0  0  0  0  0  0  0  0  0  0  0
   -2.8897    0.9832   -0.8870 O   0  0  0  0  0  0  0  0  0  0  0  0
    2.7604   -0.7124    3.6457 H   0  0  0  0  0  0  0  0  0  0  0  0
    3.6968   -0.8570    2.1285 H   0  0  0  0  0  0  0  0  0  0  0  0
    2.4736   -2.1184    2.5055 H   0  0  0  0  0  0  0  0  0  0  0  0
    1.7804    0.7574    1.9217 H   0  0  0  0  0  0  0  0  0  0  0  0
    0.4200    1.7661    1.0510 H   0  0  0  0  0  0  0  0  0  0  0  0
   -1.1326    1.8523    0.1166 H   0  0  0  0  0  0  0  0  0  0  0  0
   -1.5406   -1.8450    0.0781 H   0  0  0  0  0  0  0  0  0  0  0  0
   -3.3945   -1.3648   -2.3088 H   0  0  0  0  0  0  0  0  0  0  0  0
   -4.6950   -0.6780   -1.2397 H   0  0  0  0  0  0  0  0  0  0  0  0
   -3.7040   -2.0476   -0.6261 H   0  0  0  0  0  0  0  0  0  0  0  0
  1  2  1  0
  1 11  1  0
  1 12  1  0
  1 13  1  0
  2  3  1  0
  2 14  1  0
  3  4  2  0
  3  5  1  0
  5  6  2  3
  5  7  1  0
  6 15  1  0
  6 16  1  0
  7  8  1  0
  7 17  1  0
  8  9  1  0
  8 10  2  0
  9 18  1  0
  9 19  1  0
  9 20  1  0
M  END

> <RosettaParamsInstructions>
M  ROOT 7
M  POLY_N_BB 7
M  POLY_CA_BB 5
M  POLY_C_BB 3
M  POLY_O_BB 4
M  POLY_IGNORE 1 10 9 14 11 12 13 18 19 20
M  POLY_UPPER 2
M  POLY_LOWER 8
M  POLY_CHG 0
M  POLY_PROPERTIES PROTEIN POLYMER ALPHA_AA ALIPHATIC
M  END

$$$$
DHA_new
     RDKit          3D

 20 19  0  0  0  0  0  0  0  0999 V2000
    2.6348   -1.0568    2.6739 C   0  0  0  0  0  0  0  0  0  0  0  0
    1.6590   -0.2418    1.9292 N   0  0  0  0  0  0  0  0  0  0  0  0
    0.5429   -0.8219    1.3365 C   0  0  0  0  0  0  0  0  0  0  0  0
    0.3958   -2.0724    1.4595 O   0  0  0  0  0  0  0  0  0  0  0  0
   -0.4746   -0.0757    0.5777 C   0  0  0  0  0  0  0  0  0  0  0  0
   -0.3317    1.2132    0.4455 C   0  0  0  0  0  0  0  0  0  0  0  0
   -1.5462   -0.7810    0.0339 N   0  0  0  0  0  0  0  0  0  0  0  0
   -2.6104   -0.2527   -0.7165 C   0  0  0  0  0  0  0  0  0  0  0  0
   -3.7078   -1.1633   -1.2410 C   0  0  0  0  0  0  0  0  0  0  0  0
   -2.7826    0.9452   -1.0284 O   0  0  0  0  0  0  0  0  0  0  0  0
    2.7016   -0.6757    3.7036 H   0  0  0  0  0  0  0  0  0  0  0  0
    3.6112   -0.9177    2.1970 H   0  0  0  0  0  0  0  0  0  0  0  0
    2.3603   -2.1310    2.6126 H   0  0  0  0  0  0  0  0  0  0  0  0
    1.8454    0.7647    1.8724 H   0  0  0  0  0  0  0  0  0  0  0  0
   -1.0401    1.7992   -0.0942 H   0  0  0  0  0  0  0  0  0  0  0  0
    0.5234    1.7641    0.8814 H   0  0  0  0  0  0  0  0  0  0  0  0
   -1.5873   -1.8390    0.1897 H   0  0  0  0  0  0  0  0  0  0  0  0
   -3.5509   -1.2869   -2.3165 H   0  0  0  0  0  0  0  0  0  0  0  0
   -3.5829   -2.1452   -0.7518 H   0  0  0  0  0  0  0  0  0  0  0  0
   -4.6665   -0.6776   -1.0237 H   0  0  0  0  0  0  0  0  0  0  0  0
  1  2  1  0
  1 11  1  0
  1 12  1  0
  1 13  1  0
  2  3  1  0
  2 14  1  0
  3  4  2  0
  3  5  1  0
  5  6  2  3
  5  7  1  0
  6 15  1  0
  6 16  1  0
  7  8  1  0
  7 17  1  0
  8  9  1  0
  8 10  2  0
  9 18  1  0
  9 19  1  0
  9 20  1  0
M  END

> <RosettaParamsInstructions>
M  ROOT 7
M  POLY_N_BB 7
M  POLY_CA_BB 5
M  POLY_C_BB 3
M  POLY_O_BB 4
M  POLY_IGNORE 1 10 9 14 11 12 13 18 19 20
M  POLY_UPPER 2
M  POLY_LOWER 8
M  POLY_CHG 0
M  POLY_PROPERTIES PROTEIN POLYMER ALPHA_AA ALIPHATIC
M  END

$$$$
DHA_new
     RDKit          3D

 20 19  0  0  0  0  0  0  0  0999 V2000
    2.6533   -1.0478    2.6568 C   0  0  0  0  0  0  0  0  0  0  0  0
    1.7097   -0.2263    1.8767 N   0  0  0  0  0  0  0  0  0  0  0  0
    0.5448   -0.8052    1.3323 C   0  0  0  0  0  0  0  0  0  0  0  0
    0.3434   -2.0440    1.5375 O   0  0  0  0  0  0  0  0  0  0  0  0
   -0.4629   -0.0811    0.5396 C   0  0  0  0  0  0  0  0  0  0  0  0
   -0.2370    1.2002    0.3379 C   0  0  0  0  0  0  0  0  0  0  0  0
   -1.5982   -0.7489    0.0363 N   0  0  0  0  0  0  0  0  0  0  0  0
   -2.6345   -0.2335   -0.7188 C   0  0  0  0  0  0  0  0  0  0  0  0
   -3.7504   -1.1457   -1.1462 C   0  0  0  0  0  0  0  0  0  0  0  0
   -2.7515    0.9468   -1.0988 O   0  0  0  0  0  0  0  0  0  0  0  0
    2.0771   -1.9207    3.0136 H   0  0  0  0  0  0  0  0  0  0  0  0
    3.4781   -1.3949    2.0245 H   0  0  0  0  0  0  0  0  0  0  0  0
    3.0017   -0.4346    3.5280 H   0  0  0  0  0  0  0  0  0  0  0  0
    1.9876    0.7574    1.7841 H   0  0  0  0  0  0  0  0  0  0  0  0
   -0.9249    1.7902   -0.2284 H   0  0  0  0  0  0  0  0  0  0  0  0
    0.6440    1.7073    0.7314 H   0  0  0  0  0  0  0  0  0  0  0  0
   -1.6452   -1.7866    0.2809 H   0  0  0  0  0  0  0  0  0  0  0  0
   -3.4028   -1.6903   -2.0482 H   0  0  0  0  0  0  0  0  0  0  0  0
   -3.9603   -1.8916   -0.3489 H   0  0  0  0  0  0  0  0  0  0  0  0
   -4.6785   -0.6030   -1.3493 H   0  0  0  0  0  0  0  0  0  0  0  0
  1  2  1  0
  1 11  1  0
  1 12  1  0
  1 13  1  0
  2  3  1  0
  2 14  1  0
  3  4  2  0
  3  5  1  0
  5  6  2  3
  5  7  1  0
  6 15  1  0
  6 16  1  0
  7  8  1  0
  7 17  1  0
  8  9  1  0
  8 10  2  0
  9 18  1  0
  9 19  1  0
  9 20  1  0
M  END

> <RosettaParamsInstructions>
M  ROOT 7
M  POLY_N_BB 7
M  POLY_CA_BB 5
M  POLY_C_BB 3
M  POLY_O_BB 4
M  POLY_IGNORE 1 10 9 14 11 12 13 18 19 20
M  POLY_UPPER 2
M  POLY_LOWER 8
M  POLY_CHG 0
M  POLY_PROPERTIES PROTEIN POLYMER ALPHA_AA ALIPHATIC
M  END

$$$$
DHA_new
     RDKit          3D

 20 19  0  0  0  0  0  0  0  0999 V2000
    2.6651   -1.0735    2.5860 C   0  0  0  0  0  0  0  0  0  0  0  0
    1.6985   -0.2222    1.8732 N   0  0  0  0  0  0  0  0  0  0  0  0
    0.5766   -0.8189    1.3153 C   0  0  0  0  0  0  0  0  0  0  0  0
    0.3885   -2.0715    1.4177 O   0  0  0  0  0  0  0  0  0  0  0  0
   -0.4438   -0.0609    0.5866 C   0  0  0  0  0  0  0  0  0  0  0  0
   -0.3181    1.2396    0.4394 C   0  0  0  0  0  0  0  0  0  0  0  0
   -1.5658   -0.7279    0.0407 N   0  0  0  0  0  0  0  0  0  0  0  0
   -2.6411   -0.2194   -0.6778 C   0  0  0  0  0  0  0  0  0  0  0  0
   -3.7233   -1.1800   -1.1504 C   0  0  0  0  0  0  0  0  0  0  0  0
   -2.8035    0.9660   -0.9747 O   0  0  0  0  0  0  0  0  0  0  0  0
    2.0780   -1.7972    3.1885 H   0  0  0  0  0  0  0  0  0  0  0  0
    3.2383   -1.5987    1.7793 H   0  0  0  0  0  0  0  0  0  0  0  0
    3.3305   -0.4684    3.2338 H   0  0  0  0  0  0  0  0  0  0  0  0
    1.9006    0.7831    1.8210 H   0  0  0  0  0  0  0  0  0  0  0  0
    0.5550    1.7691    0.8625 H   0  0  0  0  0  0  0  0  0  0  0  0
   -1.0397    1.8222   -0.0838 H   0  0  0  0  0  0  0  0  0  0  0  0
   -1.5763   -1.7845    0.2141 H   0  0  0  0  0  0  0  0  0  0  0  0
   -3.6627   -2.1039   -0.5397 H   0  0  0  0  0  0  0  0  0  0  0  0
   -3.5805   -1.4450   -2.1999 H   0  0  0  0  0  0  0  0  0  0  0  0
   -4.6829   -0.6603   -0.9909 H   0  0  0  0  0  0  0  0  0  0  0  0
  1  2  1  0
  1 11  1  0
  1 12  1  0
  1 13  1  0
  2  3  1  0
  2 14  1  0
  3  4  2  0
  3  5  1  0
  5  6  2  3
  5  7  1  0
  6 15  1  0
  6 16  1  0
  7  8  1  0
  7 17  1  0
  8  9  1  0
  8 10  2  0
  9 18  1  0
  9 19  1  0
  9 20  1  0
M  END

> <RosettaParamsInstructions>
M  ROOT 7
M  POLY_N_BB 7
M  POLY_CA_BB 5
M  POLY_C_BB 3
M  POLY_O_BB 4
M  POLY_IGNORE 1 10 9 14 11 12 13 18 19 20
M  POLY_UPPER 2
M  POLY_LOWER 8
M  POLY_CHG 0
M  POLY_PROPERTIES PROTEIN POLYMER ALPHA_AA ALIPHATIC
M  END

$$$$
DHA_new
     RDKit          3D

 20 19  0  0  0  0  0  0  0  0999 V2000
    2.6898   -1.0558    2.5986 C   0  0  0  0  0  0  0  0  0  0  0  0
    1.7212   -0.2440    1.8374 N   0  0  0  0  0  0  0  0  0  0  0  0
    0.5565   -0.8079    1.3085 C   0  0  0  0  0  0  0  0  0  0  0  0
    0.3480   -2.0450    1.4989 O   0  0  0  0  0  0  0  0  0  0  0  0
   -0.4552   -0.0543    0.5372 C   0  0  0  0  0  0  0  0  0  0  0  0
   -0.2445    1.2201    0.3387 C   0  0  0  0  0  0  0  0  0  0  0  0
   -1.5987   -0.7386    0.0506 N   0  0  0  0  0  0  0  0  0  0  0  0
   -2.6527   -0.2221   -0.6856 C   0  0  0  0  0  0  0  0  0  0  0  0
   -3.7694   -1.1599   -1.0930 C   0  0  0  0  0  0  0  0  0  0  0  0
   -2.7416    0.9653   -1.0347 O   0  0  0  0  0  0  0  0  0  0  0  0
    2.5384   -2.1062    2.2569 H   0  0  0  0  0  0  0  0  0  0  0  0
    2.3847   -0.9947    3.6489 H   0  0  0  0  0  0  0  0  0  0  0  0
    3.7071   -0.7076    2.3855 H   0  0  0  0  0  0  0  0  0  0  0  0
    1.9774    0.7396    1.7380 H   0  0  0  0  0  0  0  0  0  0  0  0
    0.6620    1.7216    0.7346 H   0  0  0  0  0  0  0  0  0  0  0  0
   -0.9517    1.8165   -0.2180 H   0  0  0  0  0  0  0  0  0  0  0  0
   -1.6553   -1.7897    0.2818 H   0  0  0  0  0  0  0  0  0  0  0  0
   -3.5082   -1.7186   -1.9921 H   0  0  0  0  0  0  0  0  0  0  0  0
   -4.7109   -0.6084   -1.2178 H   0  0  0  0  0  0  0  0  0  0  0  0
   -3.9033   -1.8624   -0.2338 H   0  0  0  0  0  0  0  0  0  0  0  0
  1  2  1  0
  1 11  1  0
  1 12  1  0
  1 13  1  0
  2  3  1  0
  2 14  1  0
  3  4  2  0
  3  5  1  0
  5  6  2  3
  5  7  1  0
  6 15  1  0
  6 16  1  0
  7  8  1  0
  7 17  1  0
  8  9  1  0
  8 10  2  0
  9 18  1  0
  9 19  1  0
  9 20  1  0
M  END

> <RosettaParamsInstructions>
M  ROOT 7
M  POLY_N_BB 7
M  POLY_CA_BB 5
M  POLY_C_BB 3
M  POLY_O_BB 4
M  POLY_IGNORE 1 10 9 14 11 12 13 18 19 20
M  POLY_UPPER 2
M  POLY_LOWER 8
M  POLY_CHG 0
M  POLY_PROPERTIES PROTEIN POLYMER ALPHA_AA ALIPHATIC
M  END

$$$$
DHA_new
     RDKit          3D

 20 19  0  0  0  0  0  0  0  0999 V2000
    2.6940   -1.0644    2.5292 C   0  0  0  0  0  0  0  0  0  0  0  0
    1.6846   -0.2161    1.8564 N   0  0  0  0  0  0  0  0  0  0  0  0
    0.5869   -0.8454    1.2952 C   0  0  0  0  0  0  0  0  0  0  0  0
    0.4582   -2.0891    1.3581 O   0  0  0  0  0  0  0  0  0  0  0  0
   -0.4743   -0.1015    0.6041 C   0  0  0  0  0  0  0  0  0  0  0  0
   -0.3720    1.2000    0.5198 C   0  0  0  0  0  0  0  0  0  0  0  0
   -1.5751   -0.7823    0.0468 N   0  0  0  0  0  0  0  0  0  0  0  0
   -2.6602   -0.2293   -0.6371 C   0  0  0  0  0  0  0  0  0  0  0  0
   -3.7530   -1.1482   -1.1635 C   0  0  0  0  0  0  0  0  0  0  0  0
   -2.8366    0.9869   -0.8721 O   0  0  0  0  0  0  0  0  0  0  0  0
    2.2759   -2.0477    2.7612 H   0  0  0  0  0  0  0  0  0  0  0  0
    3.0891   -0.5209    3.4149 H   0  0  0  0  0  0  0  0  0  0  0  0
    3.5345   -1.1896    1.8043 H   0  0  0  0  0  0  0  0  0  0  0  0
    1.8994    0.7900    1.8691 H   0  0  0  0  0  0  0  0  0  0  0  0
    0.4991    1.7125    0.9636 H   0  0  0  0  0  0  0  0  0  0  0  0
   -1.0903    1.8210    0.0390 H   0  0  0  0  0  0  0  0  0  0  0  0
   -1.5696   -1.8550    0.1679 H   0  0  0  0  0  0  0  0  0  0  0  0
   -3.8045   -2.0592   -0.5041 H   0  0  0  0  0  0  0  0  0  0  0  0
   -4.7224   -0.6147   -1.1134 H   0  0  0  0  0  0  0  0  0  0  0  0
   -3.4704   -1.3991   -2.1984 H   0  0  0  0  0  0  0  0  0  0  0  0
  1  2  1  0
  1 11  1  0
  1 12  1  0
  1 13  1  0
  2  3  1  0
  2 14  1  0
  3  4  2  0
  3  5  1  0
  5  6  2  3
  5  7  1  0
  6 15  1  0
  6 16  1  0
  7  8  1  0
  7 17  1  0
  8  9  1  0
  8 10  2  0
  9 18  1  0
  9 19  1  0
  9 20  1  0
M  END

> <RosettaParamsInstructions>
M  ROOT 7
M  POLY_N_BB 7
M  POLY_CA_BB 5
M  POLY_C_BB 3
M  POLY_O_BB 4
M  POLY_IGNORE 1 10 9 14 11 12 13 18 19 20
M  POLY_UPPER 2
M  POLY_LOWER 8
M  POLY_CHG 0
M  POLY_PROPERTIES PROTEIN POLYMER ALPHA_AA ALIPHATIC
M  END

$$$$
DHA_new
     RDKit          3D

 20 19  0  0  0  0  0  0  0  0999 V2000
    2.6871   -1.0415    2.5809 C   0  0  0  0  0  0  0  0  0  0  0  0
    1.6759   -0.2552    1.8586 N   0  0  0  0  0  0  0  0  0  0  0  0
    0.5507   -0.8381    1.3045 C   0  0  0  0  0  0  0  0  0  0  0  0
    0.4061   -2.1059    1.4376 O   0  0  0  0  0  0  0  0  0  0  0  0
   -0.4813   -0.0780    0.5746 C   0  0  0  0  0  0  0  0  0  0  0  0
   -0.3296    1.2088    0.4423 C   0  0  0  0  0  0  0  0  0  0  0  0
   -1.5946   -0.8032    0.0517 N   0  0  0  0  0  0  0  0  0  0  0  0
   -2.6371   -0.2465   -0.6495 C   0  0  0  0  0  0  0  0  0  0  0  0
   -3.7718   -1.1124   -1.1607 C   0  0  0  0  0  0  0  0  0  0  0  0
   -2.7376    0.9619   -0.9149 O   0  0  0  0  0  0  0  0  0  0  0  0
    3.6027   -1.0980    1.9771 H   0  0  0  0  0  0  0  0  0  0  0  0
    2.9576   -0.5496    3.5448 H   0  0  0  0  0  0  0  0  0  0  0  0
    2.2514   -2.0459    2.7563 H   0  0  0  0  0  0  0  0  0  0  0  0
    1.8860    0.7605    1.8067 H   0  0  0  0  0  0  0  0  0  0  0  0
    0.5480    1.6984    0.8685 H   0  0  0  0  0  0  0  0  0  0  0  0
   -1.0148    1.8513   -0.0659 H   0  0  0  0  0  0  0  0  0  0  0  0
   -1.6260   -1.8578    0.2141 H   0  0  0  0  0  0  0  0  0  0  0  0
   -4.1924   -0.6890   -2.0710 H   0  0  0  0  0  0  0  0  0  0  0  0
   -4.5005   -1.3263   -0.3776 H   0  0  0  0  0  0  0  0  0  0  0  0
   -3.2861   -2.0856   -1.4373 H   0  0  0  0  0  0  0  0  0  0  0  0
  1  2  1  0
  1 11  1  0
  1 12  1  0
  1 13  1  0
  2  3  1  0
  2 14  1  0
  3  4  2  0
  3  5  1  0
  5  6  2  3
  5  7  1  0
  6 15  1  0
  6 16  1  0
  7  8  1  0
  7 17  1  0
  8  9  1  0
  8 10  2  0
  9 18  1  0
  9 19  1  0
  9 20  1  0
M  END

> <RosettaParamsInstructions>
M  ROOT 7
M  POLY_N_BB 7
M  POLY_CA_BB 5
M  POLY_C_BB 3
M  POLY_O_BB 4
M  POLY_IGNORE 1 10 9 14 11 12 13 18 19 20
M  POLY_UPPER 2
M  POLY_LOWER 8
M  POLY_CHG 0
M  POLY_PROPERTIES PROTEIN POLYMER ALPHA_AA ALIPHATIC
M  END

$$$$
DHA_new
     RDKit          3D

 20 19  0  0  0  0  0  0  0  0999 V2000
    2.6528   -1.1068    2.5809 C   0  0  0  0  0  0  0  0  0  0  0  0
    1.7050   -0.2420    1.8644 N   0  0  0  0  0  0  0  0  0  0  0  0
    0.5507   -0.8113    1.3012 C   0  0  0  0  0  0  0  0  0  0  0  0
    0.3844   -2.0695    1.4445 O   0  0  0  0  0  0  0  0  0  0  0  0
   -0.4594   -0.0403    0.5663 C   0  0  0  0  0  0  0  0  0  0  0  0
   -0.3073    1.2488    0.4089 C   0  0  0  0  0  0  0  0  0  0  0  0
   -1.5681   -0.7260    0.0518 N   0  0  0  0  0  0  0  0  0  0  0  0
   -2.6447   -0.2175   -0.6718 C   0  0  0  0  0  0  0  0  0  0  0  0
   -3.7295   -1.1844   -1.1187 C   0  0  0  0  0  0  0  0  0  0  0  0
   -2.8148    0.9847   -1.0001 O   0  0  0  0  0  0  0  0  0  0  0  0
    2.1382   -2.0234    2.8676 H   0  0  0  0  0  0  0  0  0  0  0  0
    2.9995   -0.5299    3.4872 H   0  0  0  0  0  0  0  0  0  0  0  0
    3.4953   -1.3216    1.8981 H   0  0  0  0  0  0  0  0  0  0  0  0
    1.9190    0.7683    1.7961 H   0  0  0  0  0  0  0  0  0  0  0  0
   -1.0234    1.8489   -0.1223 H   0  0  0  0  0  0  0  0  0  0  0  0
    0.5691    1.7593    0.8215 H   0  0  0  0  0  0  0  0  0  0  0  0
   -1.5834   -1.7780    0.2436 H   0  0  0  0  0  0  0  0  0  0  0  0
   -4.6844   -0.6582   -1.0486 H   0  0  0  0  0  0  0  0  0  0  0  0
   -3.7195   -2.0863   -0.4821 H   0  0  0  0  0  0  0  0  0  0  0  0
   -3.4861   -1.4670   -2.1477 H   0  0  0  0  0  0  0  0  0  0  0  0
  1  2  1  0
  1 11  1  0
  1 12  1  0
  1 13  1  0
  2  3  1  0
  2 14  1  0
  3  4  2  0
  3  5  1  0
  5  6  2  3
  5  7  1  0
  6 15  1  0
  6 16  1  0
  7  8  1  0
  7 17  1  0
  8  9  1  0
  8 10  2  0
  9 18  1  0
  9 19  1  0
  9 20  1  0
M  END

> <RosettaParamsInstructions>
M  ROOT 7
M  POLY_N_BB 7
M  POLY_CA_BB 5
M  POLY_C_BB 3
M  POLY_O_BB 4
M  POLY_IGNORE 1 10 9 14 11 12 13 18 19 20
M  POLY_UPPER 2
M  POLY_LOWER 8
M  POLY_CHG 0
M  POLY_PROPERTIES PROTEIN POLYMER ALPHA_AA ALIPHATIC
M  END

$$$$
DHA_new
     RDKit          3D

 20 19  0  0  0  0  0  0  0  0999 V2000
    2.6872   -1.0455    2.5654 C   0  0  0  0  0  0  0  0  0  0  0  0
    1.6856   -0.2234    1.8590 N   0  0  0  0  0  0  0  0  0  0  0  0
    0.5735   -0.8365    1.3055 C   0  0  0  0  0  0  0  0  0  0  0  0
    0.4336   -2.0886    1.4135 O   0  0  0  0  0  0  0  0  0  0  0  0
   -0.4823   -0.0930    0.5794 C   0  0  0  0  0  0  0  0  0  0  0  0
   -0.3641    1.2078    0.4514 C   0  0  0  0  0  0  0  0  0  0  0  0
   -1.5778   -0.7827    0.0470 N   0  0  0  0  0  0  0  0  0  0  0  0
   -2.6394   -0.2424   -0.6517 C   0  0  0  0  0  0  0  0  0  0  0  0
   -3.7462   -1.1514   -1.1575 C   0  0  0  0  0  0  0  0  0  0  0  0
   -2.7806    0.9746   -0.9178 O   0  0  0  0  0  0  0  0  0  0  0  0
    2.1722   -1.9732    2.9293 H   0  0  0  0  0  0  0  0  0  0  0  0
    3.1373   -0.4860    3.3916 H   0  0  0  0  0  0  0  0  0  0  0  0
    3.4914   -1.3296    1.8641 H   0  0  0  0  0  0  0  0  0  0  0  0
    1.9153    0.7825    1.8404 H   0  0  0  0  0  0  0  0  0  0  0  0
   -1.0684    1.8170   -0.0501 H   0  0  0  0  0  0  0  0  0  0  0  0
    0.5149    1.6947    0.8886 H   0  0  0  0  0  0  0  0  0  0  0  0
   -1.5853   -1.8471    0.2036 H   0  0  0  0  0  0  0  0  0  0  0  0
   -4.6884   -0.6156   -1.0177 H   0  0  0  0  0  0  0  0  0  0  0  0
   -3.5753   -1.3294   -2.2274 H   0  0  0  0  0  0  0  0  0  0  0  0
   -3.7096   -2.0845   -0.5757 H   0  0  0  0  0  0  0  0  0  0  0  0
  1  2  1  0
  1 11  1  0
  1 12  1  0
  1 13  1  0
  2  3  1  0
  2 14  1  0
  3  4  2  0
  3  5  1  0
  5  6  2  3
  5  7  1  0
  6 15  1  0
  6 16  1  0
  7  8  1  0
  7 17  1  0
  8  9  1  0
  8 10  2  0
  9 18  1  0
  9 19  1  0
  9 20  1  0
M  END

> <RosettaParamsInstructions>
M  ROOT 7
M  POLY_N_BB 7
M  POLY_CA_BB 5
M  POLY_C_BB 3
M  POLY_O_BB 4
M  POLY_IGNORE 1 10 9 14 11 12 13 18 19 20
M  POLY_UPPER 2
M  POLY_LOWER 8
M  POLY_CHG 0
M  POLY_PROPERTIES PROTEIN POLYMER ALPHA_AA ALIPHATIC
M  END

$$$$
DHA_new
     RDKit          3D

 20 19  0  0  0  0  0  0  0  0999 V2000
    2.6032   -1.0537    2.6583 C   0  0  0  0  0  0  0  0  0  0  0  0
    1.6760   -0.2421    1.8753 N   0  0  0  0  0  0  0  0  0  0  0  0
    0.5244   -0.8098    1.3320 C   0  0  0  0  0  0  0  0  0  0  0  0
    0.3089   -2.0355    1.5353 O   0  0  0  0  0  0  0  0  0  0  0  0
   -0.4353   -0.0605    0.5462 C   0  0  0  0  0  0  0  0  0  0  0  0
   -0.2473    1.2054    0.3154 C   0  0  0  0  0  0  0  0  0  0  0  0
   -1.5601   -0.7458    0.0512 N   0  0  0  0  0  0  0  0  0  0  0  0
   -2.6033   -0.2255   -0.7229 C   0  0  0  0  0  0  0  0  0  0  0  0
   -3.7119   -1.1542   -1.1418 C   0  0  0  0  0  0  0  0  0  0  0  0
   -2.7149    0.9415   -1.1083 O   0  0  0  0  0  0  0  0  0  0  0  0
    3.5122   -1.2824    2.0484 H   0  0  0  0  0  0  0  0  0  0  0  0
    2.9150   -0.4783    3.5423 H   0  0  0  0  0  0  0  0  0  0  0  0
    2.0810   -1.9789    2.9630 H   0  0  0  0  0  0  0  0  0  0  0  0
    1.9188    0.7384    1.7553 H   0  0  0  0  0  0  0  0  0  0  0  0
    0.6375    1.7041    0.7158 H   0  0  0  0  0  0  0  0  0  0  0  0
   -0.9247    1.7889   -0.2541 H   0  0  0  0  0  0  0  0  0  0  0  0
   -1.6285   -1.7809    0.2917 H   0  0  0  0  0  0  0  0  0  0  0  0
   -3.5552   -1.5293   -2.1739 H   0  0  0  0  0  0  0  0  0  0  0  0
   -3.7381   -2.0528   -0.4642 H   0  0  0  0  0  0  0  0  0  0  0  0
   -4.6640   -0.6008   -1.0238 H   0  0  0  0  0  0  0  0  0  0  0  0
  1  2  1  0
  1 11  1  0
  1 12  1  0
  1 13  1  0
  2  3  1  0
  2 14  1  0
  3  4  2  0
  3  5  1  0
  5  6  2  3
  5  7  1  0
  6 15  1  0
  6 16  1  0
  7  8  1  0
  7 17  1  0
  8  9  1  0
  8 10  2  0
  9 18  1  0
  9 19  1  0
  9 20  1  0
M  END

> <RosettaParamsInstructions>
M  ROOT 7
M  POLY_N_BB 7
M  POLY_CA_BB 5
M  POLY_C_BB 3
M  POLY_O_BB 4
M  POLY_IGNORE 1 10 9 14 11 12 13 18 19 20
M  POLY_UPPER 2
M  POLY_LOWER 8
M  POLY_CHG 0
M  POLY_PROPERTIES PROTEIN POLYMER ALPHA_AA ALIPHATIC
M  END

$$$$
DHA_new
     RDKit          3D

 20 19  0  0  0  0  0  0  0  0999 V2000
    2.6734   -1.0564    2.5715 C   0  0  0  0  0  0  0  0  0  0  0  0
    1.6565   -0.2086    1.9045 N   0  0  0  0  0  0  0  0  0  0  0  0
    0.5612   -0.8411    1.2940 C   0  0  0  0  0  0  0  0  0  0  0  0
    0.4615   -2.0931    1.3218 O   0  0  0  0  0  0  0  0  0  0  0  0
   -0.4727   -0.0791    0.6229 C   0  0  0  0  0  0  0  0  0  0  0  0
   -0.3858    1.2233    0.5839 C   0  0  0  0  0  0  0  0  0  0  0  0
   -1.5491   -0.7782    0.0284 N   0  0  0  0  0  0  0  0  0  0  0  0
   -2.6492   -0.2497   -0.6661 C   0  0  0  0  0  0  0  0  0  0  0  0
   -3.7007   -1.1742   -1.2299 C   0  0  0  0  0  0  0  0  0  0  0  0
   -2.8615    0.9717   -0.8783 O   0  0  0  0  0  0  0  0  0  0  0  0
    3.1861   -0.4983    3.3670 H   0  0  0  0  0  0  0  0  0  0  0  0
    3.4213   -1.3533    1.8208 H   0  0  0  0  0  0  0  0  0  0  0  0
    2.1466   -1.9659    2.9648 H   0  0  0  0  0  0  0  0  0  0  0  0
    1.8468    0.8048    1.9475 H   0  0  0  0  0  0  0  0  0  0  0  0
   -1.1010    1.8992    0.1092 H   0  0  0  0  0  0  0  0  0  0  0  0
    0.4455    1.7730    1.0423 H   0  0  0  0  0  0  0  0  0  0  0  0
   -1.5493   -1.8484    0.1030 H   0  0  0  0  0  0  0  0  0  0  0  0
   -3.2345   -2.1681   -1.3170 H   0  0  0  0  0  0  0  0  0  0  0  0
   -3.9023   -0.8163   -2.2483 H   0  0  0  0  0  0  0  0  0  0  0  0
   -4.5995   -1.1933   -0.6012 H   0  0  0  0  0  0  0  0  0  0  0  0
  1  2  1  0
  1 11  1  0
  1 12  1  0
  1 13  1  0
  2  3  1  0
  2 14  1  0
  3  4  2  0
  3  5  1  0
  5  6  2  3
  5  7  1  0
  6 15  1  0
  6 16  1  0
  7  8  1  0
  7 17  1  0
  8  9  1  0
  8 10  2  0
  9 18  1  0
  9 19  1  0
  9 20  1  0
M  END

> <RosettaParamsInstructions>
M  ROOT 7
M  POLY_N_BB 7
M  POLY_CA_BB 5
M  POLY_C_BB 3
M  POLY_O_BB 4
M  POLY_IGNORE 1 10 9 14 11 12 13 18 19 20
M  POLY_UPPER 2
M  POLY_LOWER 8
M  POLY_CHG 0
M  POLY_PROPERTIES PROTEIN POLYMER ALPHA_AA ALIPHATIC
M  END

$$$$
DHA_new
     RDKit          3D

 20 19  0  0  0  0  0  0  0  0999 V2000
    2.6803   -1.0638    2.5609 C   0  0  0  0  0  0  0  0  0  0  0  0
    1.6565   -0.2499    1.8993 N   0  0  0  0  0  0  0  0  0  0  0  0
    0.5554   -0.8258    1.2769 C   0  0  0  0  0  0  0  0  0  0  0  0
    0.4697   -2.1052    1.3042 O   0  0  0  0  0  0  0  0  0  0  0  0
   -0.4838   -0.0353    0.6077 C   0  0  0  0  0  0  0  0  0  0  0  0
   -0.3877    1.2726    0.5848 C   0  0  0  0  0  0  0  0  0  0  0  0
   -1.5432   -0.7502    0.0187 N   0  0  0  0  0  0  0  0  0  0  0  0
   -2.6454   -0.2284   -0.6718 C   0  0  0  0  0  0  0  0  0  0  0  0
   -3.6783   -1.1722   -1.2309 C   0  0  0  0  0  0  0  0  0  0  0  0
   -2.8811    0.9776   -0.8866 O   0  0  0  0  0  0  0  0  0  0  0  0
    2.8496   -0.6753    3.5682 H   0  0  0  0  0  0  0  0  0  0  0  0
    3.6147   -1.0589    1.9832 H   0  0  0  0  0  0  0  0  0  0  0  0
    2.3238   -2.1212    2.6727 H   0  0  0  0  0  0  0  0  0  0  0  0
    1.8110    0.7611    1.9297 H   0  0  0  0  0  0  0  0  0  0  0  0
   -1.1350    1.8807    0.1011 H   0  0  0  0  0  0  0  0  0  0  0  0
    0.4396    1.8064    1.0464 H   0  0  0  0  0  0  0  0  0  0  0  0
   -1.5204   -1.8166    0.0977 H   0  0  0  0  0  0  0  0  0  0  0  0
   -3.9601   -0.8102   -2.2348 H   0  0  0  0  0  0  0  0  0  0  0  0
   -4.5355   -1.2480   -0.5485 H   0  0  0  0  0  0  0  0  0  0  0  0
   -3.2365   -2.1894   -1.3380 H   0  0  0  0  0  0  0  0  0  0  0  0
  1  2  1  0
  1 11  1  0
  1 12  1  0
  1 13  1  0
  2  3  1  0
  2 14  1  0
  3  4  2  0
  3  5  1  0
  5  6  2  3
  5  7  1  0
  6 15  1  0
  6 16  1  0
  7  8  1  0
  7 17  1  0
  8  9  1  0
  8 10  2  0
  9 18  1  0
  9 19  1  0
  9 20  1  0
M  END

> <RosettaParamsInstructions>
M  ROOT 7
M  POLY_N_BB 7
M  POLY_CA_BB 5
M  POLY_C_BB 3
M  POLY_O_BB 4
M  POLY_IGNORE 1 10 9 14 11 12 13 18 19 20
M  POLY_UPPER 2
M  POLY_LOWER 8
M  POLY_CHG 0
M  POLY_PROPERTIES PROTEIN POLYMER ALPHA_AA ALIPHATIC
M  END

$$$$
DHA_new
     RDKit          3D

 20 19  0  0  0  0  0  0  0  0999 V2000
    2.6752   -1.0562    2.5653 C   0  0  0  0  0  0  0  0  0  0  0  0
    1.6782   -0.2122    1.8687 N   0  0  0  0  0  0  0  0  0  0  0  0
    0.5614   -0.8367    1.2985 C   0  0  0  0  0  0  0  0  0  0  0  0
    0.4252   -2.1026    1.3882 O   0  0  0  0  0  0  0  0  0  0  0  0
   -0.4639   -0.0673    0.5953 C   0  0  0  0  0  0  0  0  0  0  0  0
   -0.3409    1.2201    0.4950 C   0  0  0  0  0  0  0  0  0  0  0  0
   -1.5652   -0.7517    0.0422 N   0  0  0  0  0  0  0  0  0  0  0  0
   -2.6407   -0.2280   -0.6575 C   0  0  0  0  0  0  0  0  0  0  0  0
   -3.7251   -1.1675   -1.1666 C   0  0  0  0  0  0  0  0  0  0  0  0
   -2.7776    0.9737   -0.8984 O   0  0  0  0  0  0  0  0  0  0  0  0
    3.6453   -0.5673    2.4582 H   0  0  0  0  0  0  0  0  0  0  0  0
    2.7122   -2.0220    2.0287 H   0  0  0  0  0  0  0  0  0  0  0  0
    2.3522   -1.2399    3.5921 H   0  0  0  0  0  0  0  0  0  0  0  0
    1.8383    0.7944    1.8276 H   0  0  0  0  0  0  0  0  0  0  0  0
   -1.0440    1.8717   -0.0038 H   0  0  0  0  0  0  0  0  0  0  0  0
    0.5226    1.7409    0.9307 H   0  0  0  0  0  0  0  0  0  0  0  0
   -1.5781   -1.8171    0.1772 H   0  0  0  0  0  0  0  0  0  0  0  0
   -4.6673   -0.6372   -1.0267 H   0  0  0  0  0  0  0  0  0  0  0  0
   -3.5264   -1.4456   -2.2107 H   0  0  0  0  0  0  0  0  0  0  0  0
   -3.6879   -2.1015   -0.5629 H   0  0  0  0  0  0  0  0  0  0  0  0
  1  2  1  0
  1 11  1  0
  1 12  1  0
  1 13  1  0
  2  3  1  0
  2 14  1  0
  3  4  2  0
  3  5  1  0
  5  6  2  3
  5  7  1  0
  6 15  1  0
  6 16  1  0
  7  8  1  0
  7 17  1  0
  8  9  1  0
  8 10  2  0
  9 18  1  0
  9 19  1  0
  9 20  1  0
M  END

> <RosettaParamsInstructions>
M  ROOT 7
M  POLY_N_BB 7
M  POLY_CA_BB 5
M  POLY_C_BB 3
M  POLY_O_BB 4
M  POLY_IGNORE 1 10 9 14 11 12 13 18 19 20
M  POLY_UPPER 2
M  POLY_LOWER 8
M  POLY_CHG 0
M  POLY_PROPERTIES PROTEIN POLYMER ALPHA_AA ALIPHATIC
M  END

$$$$
DHA_new
     RDKit          3D

 20 19  0  0  0  0  0  0  0  0999 V2000
    2.6655   -1.0747    2.5843 C   0  0  0  0  0  0  0  0  0  0  0  0
    1.6986   -0.2162    1.8693 N   0  0  0  0  0  0  0  0  0  0  0  0
    0.5630   -0.7979    1.3032 C   0  0  0  0  0  0  0  0  0  0  0  0
    0.3986   -2.0468    1.4217 O   0  0  0  0  0  0  0  0  0  0  0  0
   -0.4580   -0.0488    0.5754 C   0  0  0  0  0  0  0  0  0  0  0  0
   -0.3312    1.2552    0.4254 C   0  0  0  0  0  0  0  0  0  0  0  0
   -1.5673   -0.7573    0.0465 N   0  0  0  0  0  0  0  0  0  0  0  0
   -2.6355   -0.2433   -0.6687 C   0  0  0  0  0  0  0  0  0  0  0  0
   -3.7296   -1.1535   -1.1540 C   0  0  0  0  0  0  0  0  0  0  0  0
   -2.7652    0.9525   -0.9506 O   0  0  0  0  0  0  0  0  0  0  0  0
    2.1614   -1.7427    3.2931 H   0  0  0  0  0  0  0  0  0  0  0  0
    3.1810   -1.7176    1.8324 H   0  0  0  0  0  0  0  0  0  0  0  0
    3.3819   -0.4551    3.1610 H   0  0  0  0  0  0  0  0  0  0  0  0
    1.9047    0.7930    1.8165 H   0  0  0  0  0  0  0  0  0  0  0  0
   -1.0134    1.9027   -0.0861 H   0  0  0  0  0  0  0  0  0  0  0  0
    0.5419    1.7383    0.8546 H   0  0  0  0  0  0  0  0  0  0  0  0
   -1.5833   -1.8119    0.2185 H   0  0  0  0  0  0  0  0  0  0  0  0
   -3.9751   -1.9175   -0.3829 H   0  0  0  0  0  0  0  0  0  0  0  0
   -3.3845   -1.7085   -2.0548 H   0  0  0  0  0  0  0  0  0  0  0  0
   -4.6602   -0.6021   -1.3640 H   0  0  0  0  0  0  0  0  0  0  0  0
  1  2  1  0
  1 11  1  0
  1 12  1  0
  1 13  1  0
  2  3  1  0
  2 14  1  0
  3  4  2  0
  3  5  1  0
  5  6  2  3
  5  7  1  0
  6 15  1  0
  6 16  1  0
  7  8  1  0
  7 17  1  0
  8  9  1  0
  8 10  2  0
  9 18  1  0
  9 19  1  0
  9 20  1  0
M  END

> <RosettaParamsInstructions>
M  ROOT 7
M  POLY_N_BB 7
M  POLY_CA_BB 5
M  POLY_C_BB 3
M  POLY_O_BB 4
M  POLY_IGNORE 1 10 9 14 11 12 13 18 19 20
M  POLY_UPPER 2
M  POLY_LOWER 8
M  POLY_CHG 0
M  POLY_PROPERTIES PROTEIN POLYMER ALPHA_AA ALIPHATIC
M  END

$$$$
DHA_new
     RDKit          3D

 20 19  0  0  0  0  0  0  0  0999 V2000
    2.7125   -1.0480    2.5689 C   0  0  0  0  0  0  0  0  0  0  0  0
    1.6664   -0.2530    1.9026 N   0  0  0  0  0  0  0  0  0  0  0  0
    0.5748   -0.8511    1.2772 C   0  0  0  0  0  0  0  0  0  0  0  0
    0.4964   -2.1058    1.2918 O   0  0  0  0  0  0  0  0  0  0  0  0
   -0.4765   -0.0932    0.6096 C   0  0  0  0  0  0  0  0  0  0  0  0
   -0.4233    1.2035    0.5778 C   0  0  0  0  0  0  0  0  0  0  0  0
   -1.5431   -0.7942    0.0044 N   0  0  0  0  0  0  0  0  0  0  0  0
   -2.6300   -0.2422   -0.6744 C   0  0  0  0  0  0  0  0  0  0  0  0
   -3.7034   -1.1353   -1.2742 C   0  0  0  0  0  0  0  0  0  0  0  0
   -2.8267    0.9638   -0.8515 O   0  0  0  0  0  0  0  0  0  0  0  0
    3.0868   -0.4644    3.4070 H   0  0  0  0  0  0  0  0  0  0  0  0
    3.5270   -1.2630    1.8706 H   0  0  0  0  0  0  0  0  0  0  0  0
    2.2510   -1.9796    2.9857 H   0  0  0  0  0  0  0  0  0  0  0  0
    1.7712    0.7796    1.9147 H   0  0  0  0  0  0  0  0  0  0  0  0
   -1.1506    1.8235    0.1112 H   0  0  0  0  0  0  0  0  0  0  0  0
    0.4003    1.7406    1.0456 H   0  0  0  0  0  0  0  0  0  0  0  0
   -1.5118   -1.8787    0.0764 H   0  0  0  0  0  0  0  0  0  0  0  0
   -3.2315   -2.1199   -1.4193 H   0  0  0  0  0  0  0  0  0  0  0  0
   -4.1131   -0.7013   -2.1905 H   0  0  0  0  0  0  0  0  0  0  0  0
   -4.4830   -1.2337   -0.4927 H   0  0  0  0  0  0  0  0  0  0  0  0
  1  2  1  0
  1 11  1  0
  1 12  1  0
  1 13  1  0
  2  3  1  0
  2 14  1  0
  3  4  2  0
  3  5  1  0
  5  6  2  3
  5  7  1  0
  6 15  1  0
  6 16  1  0
  7  8  1  0
  7 17  1  0
  8  9  1  0
  8 10  2  0
  9 18  1  0
  9 19  1  0
  9 20  1  0
M  END

> <RosettaParamsInstructions>
M  ROOT 7
M  POLY_N_BB 7
M  POLY_CA_BB 5
M  POLY_C_BB 3
M  POLY_O_BB 4
M  POLY_IGNORE 1 10 9 14 11 12 13 18 19 20
M  POLY_UPPER 2
M  POLY_LOWER 8
M  POLY_CHG 0
M  POLY_PROPERTIES PROTEIN POLYMER ALPHA_AA ALIPHATIC
M  END

$$$$
DHA_new
     RDKit          3D

 20 19  0  0  0  0  0  0  0  0999 V2000
    2.6444   -1.0261    2.6635 C   0  0  0  0  0  0  0  0  0  0  0  0
    1.6809   -0.2552    1.8691 N   0  0  0  0  0  0  0  0  0  0  0  0
    0.5249   -0.8332    1.3449 C   0  0  0  0  0  0  0  0  0  0  0  0
    0.3141   -2.0510    1.5669 O   0  0  0  0  0  0  0  0  0  0  0  0
   -0.4569   -0.0742    0.5430 C   0  0  0  0  0  0  0  0  0  0  0  0
   -0.2397    1.1994    0.3090 C   0  0  0  0  0  0  0  0  0  0  0  0
   -1.5930   -0.7654    0.0631 N   0  0  0  0  0  0  0  0  0  0  0  0
   -2.6273   -0.2542   -0.6994 C   0  0  0  0  0  0  0  0  0  0  0  0
   -3.7618   -1.1659   -1.1155 C   0  0  0  0  0  0  0  0  0  0  0  0
   -2.6786    0.9328   -1.0688 O   0  0  0  0  0  0  0  0  0  0  0  0
    3.0756   -0.3919    3.4606 H   0  0  0  0  0  0  0  0  0  0  0  0
    2.0697   -1.8473    3.1492 H   0  0  0  0  0  0  0  0  0  0  0  0
    3.4056   -1.4594    1.9882 H   0  0  0  0  0  0  0  0  0  0  0  0
    1.9389    0.7408    1.7385 H   0  0  0  0  0  0  0  0  0  0  0  0
    0.6552    1.7173    0.6946 H   0  0  0  0  0  0  0  0  0  0  0  0
   -0.8926    1.8187   -0.2571 H   0  0  0  0  0  0  0  0  0  0  0  0
   -1.6528   -1.7995    0.3225 H   0  0  0  0  0  0  0  0  0  0  0  0
   -3.7476   -1.1495   -2.2323 H   0  0  0  0  0  0  0  0  0  0  0  0
   -3.5376   -2.2036   -0.8111 H   0  0  0  0  0  0  0  0  0  0  0  0
   -4.7281   -0.7849   -0.7880 H   0  0  0  0  0  0  0  0  0  0  0  0
  1  2  1  0
  1 11  1  0
  1 12  1  0
  1 13  1  0
  2  3  1  0
  2 14  1  0
  3  4  2  0
  3  5  1  0
  5  6  2  3
  5  7  1  0
  6 15  1  0
  6 16  1  0
  7  8  1  0
  7 17  1  0
  8  9  1  0
  8 10  2  0
  9 18  1  0
  9 19  1  0
  9 20  1  0
M  END

> <RosettaParamsInstructions>
M  ROOT 7
M  POLY_N_BB 7
M  POLY_CA_BB 5
M  POLY_C_BB 3
M  POLY_O_BB 4
M  POLY_IGNORE 1 10 9 14 11 12 13 18 19 20
M  POLY_UPPER 2
M  POLY_LOWER 8
M  POLY_CHG 0
M  POLY_PROPERTIES PROTEIN POLYMER ALPHA_AA ALIPHATIC
M  END

$$$$
DHA_new
     RDKit          3D

 20 19  0  0  0  0  0  0  0  0999 V2000
    2.6880   -1.0492    2.5877 C   0  0  0  0  0  0  0  0  0  0  0  0
    1.6477   -0.2450    1.9149 N   0  0  0  0  0  0  0  0  0  0  0  0
    0.5570   -0.8441    1.2885 C   0  0  0  0  0  0  0  0  0  0  0  0
    0.4582   -2.1139    1.2983 O   0  0  0  0  0  0  0  0  0  0  0  0
   -0.4774   -0.0728    0.6210 C   0  0  0  0  0  0  0  0  0  0  0  0
   -0.3680    1.2392    0.6153 C   0  0  0  0  0  0  0  0  0  0  0  0
   -1.5526   -0.7658    0.0090 N   0  0  0  0  0  0  0  0  0  0  0  0
   -2.6474   -0.2620   -0.6804 C   0  0  0  0  0  0  0  0  0  0  0  0
   -3.7071   -1.1717   -1.2711 C   0  0  0  0  0  0  0  0  0  0  0  0
   -2.8552    0.9532   -0.8727 O   0  0  0  0  0  0  0  0  0  0  0  0
    2.8870   -0.6657    3.6055 H   0  0  0  0  0  0  0  0  0  0  0  0
    3.5780   -0.9835    1.9438 H   0  0  0  0  0  0  0  0  0  0  0  0
    2.3385   -2.0946    2.5947 H   0  0  0  0  0  0  0  0  0  0  0  0
    1.7985    0.7781    1.9500 H   0  0  0  0  0  0  0  0  0  0  0  0
    0.4352    1.7615    1.0721 H   0  0  0  0  0  0  0  0  0  0  0  0
   -1.1191    1.8446    0.1281 H   0  0  0  0  0  0  0  0  0  0  0  0
   -1.5210   -1.8381    0.0868 H   0  0  0  0  0  0  0  0  0  0  0  0
   -3.5560   -1.1816   -2.3540 H   0  0  0  0  0  0  0  0  0  0  0  0
   -4.6681   -0.7461   -0.9644 H   0  0  0  0  0  0  0  0  0  0  0  0
   -3.5229   -2.1948   -0.8324 H   0  0  0  0  0  0  0  0  0  0  0  0
  1  2  1  0
  1 11  1  0
  1 12  1  0
  1 13  1  0
  2  3  1  0
  2 14  1  0
  3  4  2  0
  3  5  1  0
  5  6  2  3
  5  7  1  0
  6 15  1  0
  6 16  1  0
  7  8  1  0
  7 17  1  0
  8  9  1  0
  8 10  2  0
  9 18  1  0
  9 19  1  0
  9 20  1  0
M  END

> <RosettaParamsInstructions>
M  ROOT 7
M  POLY_N_BB 7
M  POLY_CA_BB 5
M  POLY_C_BB 3
M  POLY_O_BB 4
M  POLY_IGNORE 1 10 9 14 11 12 13 18 19 20
M  POLY_UPPER 2
M  POLY_LOWER 8
M  POLY_CHG 0
M  POLY_PROPERTIES PROTEIN POLYMER ALPHA_AA ALIPHATIC
M  END

$$$$
DHA_new
     RDKit          3D

 20 19  0  0  0  0  0  0  0  0999 V2000
    2.7194   -1.0157    2.5737 C   0  0  0  0  0  0  0  0  0  0  0  0
    1.6886   -0.3711    1.9037 N   0  0  0  0  0  0  0  0  0  0  0  0
    0.5552   -0.9284    1.3054 C   0  0  0  0  0  0  0  0  0  0  0  0
    0.4286   -2.1973    1.3217 O   0  0  0  0  0  0  0  0  0  0  0  0
   -0.5134   -0.1459    0.6620 C   0  0  0  0  0  0  0  0  0  0  0  0
   -0.4530    1.1594    0.6291 C   0  0  0  0  0  0  0  0  0  0  0  0
   -1.5941   -0.8052    0.0205 N   0  0  0  0  0  0  0  0  0  0  0  0
   -2.6158   -0.2163   -0.6471 C   0  0  0  0  0  0  0  0  0  0  0  0
   -3.6937   -1.0858   -1.2969 C   0  0  0  0  0  0  0  0  0  0  0  0
   -2.8199    1.0048   -0.8244 O   0  0  0  0  0  0  0  0  0  0  0  0
    2.9623   -0.4986    3.5667 H   0  0  0  0  0  0  0  0  0  0  0  0
    3.6621   -0.9135    1.9492 H   0  0  0  0  0  0  0  0  0  0  0  0
    2.5032   -2.0567    2.8096 H   0  0  0  0  0  0  0  0  0  0  0  0
    1.7027    0.7252    1.7157 H   0  0  0  0  0  0  0  0  0  0  0  0
    0.3579    1.7418    1.0478 H   0  0  0  0  0  0  0  0  0  0  0  0
   -1.2687    1.7454    0.1853 H   0  0  0  0  0  0  0  0  0  0  0  0
   -1.5361   -1.8785    0.0674 H   0  0  0  0  0  0  0  0  0  0  0  0
   -3.1551   -1.9460   -1.8076 H   0  0  0  0  0  0  0  0  0  0  0  0
   -4.2646   -0.4621   -1.9847 H   0  0  0  0  0  0  0  0  0  0  0  0
   -4.2720   -1.5077   -0.4563 H   0  0  0  0  0  0  0  0  0  0  0  0
  1  2  1  0
  1 11  1  0
  1 12  1  0
  1 13  1  0
  2  3  1  0
  2 14  1  0
  3  4  2  0
  3  5  1  0
  5  6  2  3
  5  7  1  0
  6 15  1  0
  6 16  1  0
  7  8  1  0
  7 17  1  0
  8  9  1  0
  8 10  2  0
  9 18  1  0
  9 19  1  0
  9 20  1  0
M  END

> <RosettaParamsInstructions>
M  ROOT 7
M  POLY_N_BB 7
M  POLY_CA_BB 5
M  POLY_C_BB 3
M  POLY_O_BB 4
M  POLY_IGNORE 1 10 9 14 11 12 13 18 19 20
M  POLY_UPPER 2
M  POLY_LOWER 8
M  POLY_CHG 0
M  POLY_PROPERTIES PROTEIN POLYMER ALPHA_AA ALIPHATIC
M  END

$$$$
DHA_new
     RDKit          3D

 20 19  0  0  0  0  0  0  0  0999 V2000
    2.7003   -1.0458    2.5769 C   0  0  0  0  0  0  0  0  0  0  0  0
    1.6721   -0.2379    1.8963 N   0  0  0  0  0  0  0  0  0  0  0  0
    0.5628   -0.8404    1.2902 C   0  0  0  0  0  0  0  0  0  0  0  0
    0.4543   -2.0877    1.3343 O   0  0  0  0  0  0  0  0  0  0  0  0
   -0.4627   -0.0736    0.6149 C   0  0  0  0  0  0  0  0  0  0  0  0
   -0.3415    1.2342    0.5731 C   0  0  0  0  0  0  0  0  0  0  0  0
   -1.5558   -0.7712    0.0267 N   0  0  0  0  0  0  0  0  0  0  0  0
   -2.6467   -0.2700   -0.6645 C   0  0  0  0  0  0  0  0  0  0  0  0
   -3.7158   -1.1697   -1.2209 C   0  0  0  0  0  0  0  0  0  0  0  0
   -2.8261    0.9391   -0.8761 O   0  0  0  0  0  0  0  0  0  0  0  0
    2.3533   -1.1859    3.6130 H   0  0  0  0  0  0  0  0  0  0  0  0
    3.6786   -0.5286    2.5649 H   0  0  0  0  0  0  0  0  0  0  0  0
    2.7210   -2.0276    2.0620 H   0  0  0  0  0  0  0  0  0  0  0  0
    1.8410    0.7806    1.9079 H   0  0  0  0  0  0  0  0  0  0  0  0
    0.4779    1.7859    1.0115 H   0  0  0  0  0  0  0  0  0  0  0  0
   -1.0713    1.8643    0.0851 H   0  0  0  0  0  0  0  0  0  0  0  0
   -1.5257   -1.8311    0.1367 H   0  0  0  0  0  0  0  0  0  0  0  0
   -4.7012   -0.6621   -1.1903 H   0  0  0  0  0  0  0  0  0  0  0  0
   -3.7107   -2.1469   -0.6962 H   0  0  0  0  0  0  0  0  0  0  0  0
   -3.5103   -1.3777   -2.3047 H   0  0  0  0  0  0  0  0  0  0  0  0
  1  2  1  0
  1 11  1  0
  1 12  1  0
  1 13  1  0
  2  3  1  0
  2 14  1  0
  3  4  2  0
  3  5  1  0
  5  6  2  3
  5  7  1  0
  6 15  1  0
  6 16  1  0
  7  8  1  0
  7 17  1  0
  8  9  1  0
  8 10  2  0
  9 18  1  0
  9 19  1  0
  9 20  1  0
M  END

> <RosettaParamsInstructions>
M  ROOT 7
M  POLY_N_BB 7
M  POLY_CA_BB 5
M  POLY_C_BB 3
M  POLY_O_BB 4
M  POLY_IGNORE 1 10 9 14 11 12 13 18 19 20
M  POLY_UPPER 2
M  POLY_LOWER 8
M  POLY_CHG 0
M  POLY_PROPERTIES PROTEIN POLYMER ALPHA_AA ALIPHATIC
M  END

$$$$
DHA_new
     RDKit          3D

 20 19  0  0  0  0  0  0  0  0999 V2000
    2.6711   -1.0186    2.5762 C   0  0  0  0  0  0  0  0  0  0  0  0
    1.6707   -0.2191    1.8554 N   0  0  0  0  0  0  0  0  0  0  0  0
    0.5634   -0.8445    1.3082 C   0  0  0  0  0  0  0  0  0  0  0  0
    0.4153   -2.1065    1.4307 O   0  0  0  0  0  0  0  0  0  0  0  0
   -0.4767   -0.1061    0.5742 C   0  0  0  0  0  0  0  0  0  0  0  0
   -0.3313    1.1899    0.4445 C   0  0  0  0  0  0  0  0  0  0  0  0
   -1.5859   -0.8173    0.0404 N   0  0  0  0  0  0  0  0  0  0  0  0
   -2.6219   -0.2350   -0.6652 C   0  0  0  0  0  0  0  0  0  0  0  0
   -3.7257   -1.1288   -1.1656 C   0  0  0  0  0  0  0  0  0  0  0  0
   -2.7576    0.9639   -0.9441 O   0  0  0  0  0  0  0  0  0  0  0  0
    2.7976   -0.6491    3.6120 H   0  0  0  0  0  0  0  0  0  0  0  0
    2.3418   -2.0730    2.6254 H   0  0  0  0  0  0  0  0  0  0  0  0
    3.6495   -0.9967    2.0582 H   0  0  0  0  0  0  0  0  0  0  0  0
    1.8756    0.7785    1.8102 H   0  0  0  0  0  0  0  0  0  0  0  0
    0.5306    1.6759    0.8704 H   0  0  0  0  0  0  0  0  0  0  0  0
   -1.0057    1.8552   -0.0624 H   0  0  0  0  0  0  0  0  0  0  0  0
   -1.5959   -1.8606    0.2078 H   0  0  0  0  0  0  0  0  0  0  0  0
   -3.5388   -2.1661   -0.8721 H   0  0  0  0  0  0  0  0  0  0  0  0
   -3.7989   -1.0738   -2.2695 H   0  0  0  0  0  0  0  0  0  0  0  0
   -4.6838   -0.8205   -0.6940 H   0  0  0  0  0  0  0  0  0  0  0  0
  1  2  1  0
  1 11  1  0
  1 12  1  0
  1 13  1  0
  2  3  1  0
  2 14  1  0
  3  4  2  0
  3  5  1  0
  5  6  2  3
  5  7  1  0
  6 15  1  0
  6 16  1  0
  7  8  1  0
  7 17  1  0
  8  9  1  0
  8 10  2  0
  9 18  1  0
  9 19  1  0
  9 20  1  0
M  END

> <RosettaParamsInstructions>
M  ROOT 7
M  POLY_N_BB 7
M  POLY_CA_BB 5
M  POLY_C_BB 3
M  POLY_O_BB 4
M  POLY_IGNORE 1 10 9 14 11 12 13 18 19 20
M  POLY_UPPER 2
M  POLY_LOWER 8
M  POLY_CHG 0
M  POLY_PROPERTIES PROTEIN POLYMER ALPHA_AA ALIPHATIC
M  END

$$$$
DHA_new
     RDKit          3D

 20 19  0  0  0  0  0  0  0  0999 V2000
    2.6595   -1.0541    2.5957 C   0  0  0  0  0  0  0  0  0  0  0  0
    1.6982   -0.2245    1.8152 N   0  0  0  0  0  0  0  0  0  0  0  0
    0.5532   -0.8442    1.3322 C   0  0  0  0  0  0  0  0  0  0  0  0
    0.3536   -2.0713    1.5589 O   0  0  0  0  0  0  0  0  0  0  0  0
   -0.4508   -0.0790    0.5451 C   0  0  0  0  0  0  0  0  0  0  0  0
   -0.2131    1.1925    0.3278 C   0  0  0  0  0  0  0  0  0  0  0  0
   -1.5987   -0.7740    0.0813 N   0  0  0  0  0  0  0  0  0  0  0  0
   -2.6207   -0.2397   -0.6519 C   0  0  0  0  0  0  0  0  0  0  0  0
   -3.7754   -1.1295   -1.0655 C   0  0  0  0  0  0  0  0  0  0  0  0
   -2.6922    0.9397   -1.0206 O   0  0  0  0  0  0  0  0  0  0  0  0
    2.6101   -2.0627    2.1479 H   0  0  0  0  0  0  0  0  0  0  0  0
    2.3366   -1.0731    3.6624 H   0  0  0  0  0  0  0  0  0  0  0  0
    3.6555   -0.6045    2.4635 H   0  0  0  0  0  0  0  0  0  0  0  0
    1.9438    0.7660    1.6813 H   0  0  0  0  0  0  0  0  0  0  0  0
    0.6661    1.6934    0.6917 H   0  0  0  0  0  0  0  0  0  0  0  0
   -0.9003    1.7909   -0.2317 H   0  0  0  0  0  0  0  0  0  0  0  0
   -1.6505   -1.8093    0.3394 H   0  0  0  0  0  0  0  0  0  0  0  0
   -4.6867   -0.5372   -1.2249 H   0  0  0  0  0  0  0  0  0  0  0  0
   -3.5149   -1.6384   -2.0151 H   0  0  0  0  0  0  0  0  0  0  0  0
   -3.9800   -1.8933   -0.2918 H   0  0  0  0  0  0  0  0  0  0  0  0
  1  2  1  0
  1 11  1  0
  1 12  1  0
  1 13  1  0
  2  3  1  0
  2 14  1  0
  3  4  2  0
  3  5  1  0
  5  6  2  3
  5  7  1  0
  6 15  1  0
  6 16  1  0
  7  8  1  0
  7 17  1  0
  8  9  1  0
  8 10  2  0
  9 18  1  0
  9 19  1  0
  9 20  1  0
M  END

> <RosettaParamsInstructions>
M  ROOT 7
M  POLY_N_BB 7
M  POLY_CA_BB 5
M  POLY_C_BB 3
M  POLY_O_BB 4
M  POLY_IGNORE 1 10 9 14 11 12 13 18 19 20
M  POLY_UPPER 2
M  POLY_LOWER 8
M  POLY_CHG 0
M  POLY_PROPERTIES PROTEIN POLYMER ALPHA_AA ALIPHATIC
M  END

$$$$
DHA_new
     RDKit          3D

 20 19  0  0  0  0  0  0  0  0999 V2000
    2.6531   -1.0848    2.5951 C   0  0  0  0  0  0  0  0  0  0  0  0
    1.6473   -0.2350    1.9226 N   0  0  0  0  0  0  0  0  0  0  0  0
    0.5591   -0.8311    1.2986 C   0  0  0  0  0  0  0  0  0  0  0  0
    0.4426   -2.0819    1.3129 O   0  0  0  0  0  0  0  0  0  0  0  0
   -0.4698   -0.0605    0.6173 C   0  0  0  0  0  0  0  0  0  0  0  0
   -0.3966    1.2593    0.5717 C   0  0  0  0  0  0  0  0  0  0  0  0
   -1.5367   -0.7661    0.0138 N   0  0  0  0  0  0  0  0  0  0  0  0
   -2.6288   -0.2389   -0.6895 C   0  0  0  0  0  0  0  0  0  0  0  0
   -3.6720   -1.1845   -1.2621 C   0  0  0  0  0  0  0  0  0  0  0  0
   -2.8713    0.9548   -0.9193 O   0  0  0  0  0  0  0  0  0  0  0  0
    2.5945   -0.9472    3.6796 H   0  0  0  0  0  0  0  0  0  0  0  0
    3.6380   -0.7183    2.2043 H   0  0  0  0  0  0  0  0  0  0  0  0
    2.5062   -2.1113    2.2421 H   0  0  0  0  0  0  0  0  0  0  0  0
    1.8552    0.7755    1.9812 H   0  0  0  0  0  0  0  0  0  0  0  0
   -1.1184    1.8717    0.0889 H   0  0  0  0  0  0  0  0  0  0  0  0
    0.4478    1.7346    1.0551 H   0  0  0  0  0  0  0  0  0  0  0  0
   -1.5025   -1.8282    0.1073 H   0  0  0  0  0  0  0  0  0  0  0  0
   -3.1715   -2.1586   -1.3985 H   0  0  0  0  0  0  0  0  0  0  0  0
   -4.4715   -1.2171   -0.4962 H   0  0  0  0  0  0  0  0  0  0  0  0
   -4.1113   -0.7846   -2.1839 H   0  0  0  0  0  0  0  0  0  0  0  0
  1  2  1  0
  1 11  1  0
  1 12  1  0
  1 13  1  0
  2  3  1  0
  2 14  1  0
  3  4  2  0
  3  5  1  0
  5  6  2  3
  5  7  1  0
  6 15  1  0
  6 16  1  0
  7  8  1  0
  7 17  1  0
  8  9  1  0
  8 10  2  0
  9 18  1  0
  9 19  1  0
  9 20  1  0
M  END

> <RosettaParamsInstructions>
M  ROOT 7
M  POLY_N_BB 7
M  POLY_CA_BB 5
M  POLY_C_BB 3
M  POLY_O_BB 4
M  POLY_IGNORE 1 10 9 14 11 12 13 18 19 20
M  POLY_UPPER 2
M  POLY_LOWER 8
M  POLY_CHG 0
M  POLY_PROPERTIES PROTEIN POLYMER ALPHA_AA ALIPHATIC
M  END

$$$$
DHA_new
     RDKit          3D

 20 19  0  0  0  0  0  0  0  0999 V2000
    2.6664   -1.0524    2.5789 C   0  0  0  0  0  0  0  0  0  0  0  0
    1.6764   -0.2248    1.8613 N   0  0  0  0  0  0  0  0  0  0  0  0
    0.5741   -0.8450    1.3178 C   0  0  0  0  0  0  0  0  0  0  0  0
    0.4217   -2.0863    1.4341 O   0  0  0  0  0  0  0  0  0  0  0  0
   -0.4677   -0.0925    0.5823 C   0  0  0  0  0  0  0  0  0  0  0  0
   -0.3292    1.2051    0.4485 C   0  0  0  0  0  0  0  0  0  0  0  0
   -1.5725   -0.7894    0.0501 N   0  0  0  0  0  0  0  0  0  0  0  0
   -2.6255   -0.2504   -0.6566 C   0  0  0  0  0  0  0  0  0  0  0  0
   -3.7405   -1.1521   -1.1609 C   0  0  0  0  0  0  0  0  0  0  0  0
   -2.7806    0.9420   -0.9451 O   0  0  0  0  0  0  0  0  0  0  0  0
    2.4543   -2.1275    2.4492 H   0  0  0  0  0  0  0  0  0  0  0  0
    3.6353   -0.8382    2.1265 H   0  0  0  0  0  0  0  0  0  0  0  0
    2.6255   -0.8084    3.6472 H   0  0  0  0  0  0  0  0  0  0  0  0
    1.8720    0.7753    1.8103 H   0  0  0  0  0  0  0  0  0  0  0  0
   -1.0427    1.8220   -0.0720 H   0  0  0  0  0  0  0  0  0  0  0  0
    0.5388    1.7116    0.8735 H   0  0  0  0  0  0  0  0  0  0  0  0
   -1.5542   -1.8421    0.2352 H   0  0  0  0  0  0  0  0  0  0  0  0
   -4.0420   -0.8171   -2.1665 H   0  0  0  0  0  0  0  0  0  0  0  0
   -4.5721   -1.0171   -0.4602 H   0  0  0  0  0  0  0  0  0  0  0  0
   -3.3439   -2.1648   -1.2128 H   0  0  0  0  0  0  0  0  0  0  0  0
  1  2  1  0
  1 11  1  0
  1 12  1  0
  1 13  1  0
  2  3  1  0
  2 14  1  0
  3  4  2  0
  3  5  1  0
  5  6  2  3
  5  7  1  0
  6 15  1  0
  6 16  1  0
  7  8  1  0
  7 17  1  0
  8  9  1  0
  8 10  2  0
  9 18  1  0
  9 19  1  0
  9 20  1  0
M  END

> <RosettaParamsInstructions>
M  ROOT 7
M  POLY_N_BB 7
M  POLY_CA_BB 5
M  POLY_C_BB 3
M  POLY_O_BB 4
M  POLY_IGNORE 1 10 9 14 11 12 13 18 19 20
M  POLY_UPPER 2
M  POLY_LOWER 8
M  POLY_CHG 0
M  POLY_PROPERTIES PROTEIN POLYMER ALPHA_AA ALIPHATIC
M  END

$$$$
DHA_new
     RDKit          3D

 20 19  0  0  0  0  0  0  0  0999 V2000
    2.6113   -1.0682    2.6479 C   0  0  0  0  0  0  0  0  0  0  0  0
    1.6517   -0.2230    1.9117 N   0  0  0  0  0  0  0  0  0  0  0  0
    0.5389   -0.8188    1.3245 C   0  0  0  0  0  0  0  0  0  0  0  0
    0.3812   -2.0689    1.4385 O   0  0  0  0  0  0  0  0  0  0  0  0
   -0.4509   -0.0307    0.5794 C   0  0  0  0  0  0  0  0  0  0  0  0
   -0.2997    1.2581    0.4549 C   0  0  0  0  0  0  0  0  0  0  0  0
   -1.5433   -0.7335    0.0229 N   0  0  0  0  0  0  0  0  0  0  0  0
   -2.6166   -0.2415   -0.7239 C   0  0  0  0  0  0  0  0  0  0  0  0
   -3.6818   -1.1873   -1.2224 C   0  0  0  0  0  0  0  0  0  0  0  0
   -2.7645    0.9558   -1.0178 O   0  0  0  0  0  0  0  0  0  0  0  0
    3.1889   -0.4453    3.3489 H   0  0  0  0  0  0  0  0  0  0  0  0
    3.2941   -1.5100    1.8938 H   0  0  0  0  0  0  0  0  0  0  0  0
    2.0782   -1.8736    3.1923 H   0  0  0  0  0  0  0  0  0  0  0  0
    1.8516    0.7851    1.8647 H   0  0  0  0  0  0  0  0  0  0  0  0
    0.5538    1.7856    0.8933 H   0  0  0  0  0  0  0  0  0  0  0  0
   -1.0070    1.8548   -0.0833 H   0  0  0  0  0  0  0  0  0  0  0  0
   -1.5457   -1.7784    0.1982 H   0  0  0  0  0  0  0  0  0  0  0  0
   -3.3588   -1.6911   -2.1358 H   0  0  0  0  0  0  0  0  0  0  0  0
   -3.8706   -1.9664   -0.4409 H   0  0  0  0  0  0  0  0  0  0  0  0
   -4.6173   -0.6550   -1.4060 H   0  0  0  0  0  0  0  0  0  0  0  0
  1  2  1  0
  1 11  1  0
  1 12  1  0
  1 13  1  0
  2  3  1  0
  2 14  1  0
  3  4  2  0
  3  5  1  0
  5  6  2  3
  5  7  1  0
  6 15  1  0
  6 16  1  0
  7  8  1  0
  7 17  1  0
  8  9  1  0
  8 10  2  0
  9 18  1  0
  9 19  1  0
  9 20  1  0
M  END

> <RosettaParamsInstructions>
M  ROOT 7
M  POLY_N_BB 7
M  POLY_CA_BB 5
M  POLY_C_BB 3
M  POLY_O_BB 4
M  POLY_IGNORE 1 10 9 14 11 12 13 18 19 20
M  POLY_UPPER 2
M  POLY_LOWER 8
M  POLY_CHG 0
M  POLY_PROPERTIES PROTEIN POLYMER ALPHA_AA ALIPHATIC
M  END

$$$$
DHA_new
     RDKit          3D

 20 19  0  0  0  0  0  0  0  0999 V2000
    2.6965   -1.0630    2.4846 C   0  0  0  0  0  0  0  0  0  0  0  0
    1.6508   -0.2158    1.8872 N   0  0  0  0  0  0  0  0  0  0  0  0
    0.5793   -0.8449    1.2590 C   0  0  0  0  0  0  0  0  0  0  0  0
    0.5327   -2.1010    1.2187 O   0  0  0  0  0  0  0  0  0  0  0  0
   -0.4936   -0.0464    0.6452 C   0  0  0  0  0  0  0  0  0  0  0  0
   -0.4535    1.2525    0.6821 C   0  0  0  0  0  0  0  0  0  0  0  0
   -1.5598   -0.7473    0.0195 N   0  0  0  0  0  0  0  0  0  0  0  0
   -2.6772   -0.2100   -0.6229 C   0  0  0  0  0  0  0  0  0  0  0  0
   -3.6816   -1.1688   -1.2153 C   0  0  0  0  0  0  0  0  0  0  0  0
   -2.9324    0.9913   -0.7582 O   0  0  0  0  0  0  0  0  0  0  0  0
    2.3965   -1.3662    3.5082 H   0  0  0  0  0  0  0  0  0  0  0  0
    3.6725   -0.5396    2.4613 H   0  0  0  0  0  0  0  0  0  0  0  0
    2.7942   -1.9792    1.8372 H   0  0  0  0  0  0  0  0  0  0  0  0
    1.8022    0.7890    1.9857 H   0  0  0  0  0  0  0  0  0  0  0  0
   -1.2068    1.8848    0.2519 H   0  0  0  0  0  0  0  0  0  0  0  0
    0.3827    1.7817    1.1726 H   0  0  0  0  0  0  0  0  0  0  0  0
   -1.4693   -1.8102    0.0609 H   0  0  0  0  0  0  0  0  0  0  0  0
   -4.3543   -1.5231   -0.4352 H   0  0  0  0  0  0  0  0  0  0  0  0
   -4.1928   -0.7162   -2.0919 H   0  0  0  0  0  0  0  0  0  0  0  0
   -3.0924   -2.0199   -1.6096 H   0  0  0  0  0  0  0  0  0  0  0  0
  1  2  1  0
  1 11  1  0
  1 12  1  0
  1 13  1  0
  2  3  1  0
  2 14  1  0
  3  4  2  0
  3  5  1  0
  5  6  2  3
  5  7  1  0
  6 15  1  0
  6 16  1  0
  7  8  1  0
  7 17  1  0
  8  9  1  0
  8 10  2  0
  9 18  1  0
  9 19  1  0
  9 20  1  0
M  END

> <RosettaParamsInstructions>
M  ROOT 7
M  POLY_N_BB 7
M  POLY_CA_BB 5
M  POLY_C_BB 3
M  POLY_O_BB 4
M  POLY_IGNORE 1 10 9 14 11 12 13 18 19 20
M  POLY_UPPER 2
M  POLY_LOWER 8
M  POLY_CHG 0
M  POLY_PROPERTIES PROTEIN POLYMER ALPHA_AA ALIPHATIC
M  END

$$$$
DHA_new
     RDKit          3D

 20 19  0  0  0  0  0  0  0  0999 V2000
    2.6905   -1.0446    2.5933 C   0  0  0  0  0  0  0  0  0  0  0  0
    1.7007   -0.2347    1.8484 N   0  0  0  0  0  0  0  0  0  0  0  0
    0.5491   -0.8286    1.3111 C   0  0  0  0  0  0  0  0  0  0  0  0
    0.3837   -2.0759    1.4831 O   0  0  0  0  0  0  0  0  0  0  0  0
   -0.4823   -0.0834    0.5561 C   0  0  0  0  0  0  0  0  0  0  0  0
   -0.2872    1.2091    0.3916 C   0  0  0  0  0  0  0  0  0  0  0  0
   -1.6084   -0.7525    0.0498 N   0  0  0  0  0  0  0  0  0  0  0  0
   -2.6753   -0.2247   -0.6790 C   0  0  0  0  0  0  0  0  0  0  0  0
   -3.7775   -1.1726   -1.1118 C   0  0  0  0  0  0  0  0  0  0  0  0
   -2.7785    0.9784   -0.9966 O   0  0  0  0  0  0  0  0  0  0  0  0
    3.6974   -0.9453    2.1428 H   0  0  0  0  0  0  0  0  0  0  0  0
    2.4001   -2.1012    2.4895 H   0  0  0  0  0  0  0  0  0  0  0  0
    2.6422   -0.7578    3.6532 H   0  0  0  0  0  0  0  0  0  0  0  0
    1.9712    0.7676    1.7896 H   0  0  0  0  0  0  0  0  0  0  0  0
   -0.9630    1.8606   -0.1381 H   0  0  0  0  0  0  0  0  0  0  0  0
    0.5994    1.7125    0.7953 H   0  0  0  0  0  0  0  0  0  0  0  0
   -1.6349   -1.8029    0.2597 H   0  0  0  0  0  0  0  0  0  0  0  0
   -4.0513   -0.8984   -2.1292 H   0  0  0  0  0  0  0  0  0  0  0  0
   -4.6182   -1.0504   -0.4240 H   0  0  0  0  0  0  0  0  0  0  0  0
   -3.3643   -2.2075   -1.1441 H   0  0  0  0  0  0  0  0  0  0  0  0
  1  2  1  0
  1 11  1  0
  1 12  1  0
  1 13  1  0
  2  3  1  0
  2 14  1  0
  3  4  2  0
  3  5  1  0
  5  6  2  3
  5  7  1  0
  6 15  1  0
  6 16  1  0
  7  8  1  0
  7 17  1  0
  8  9  1  0
  8 10  2  0
  9 18  1  0
  9 19  1  0
  9 20  1  0
M  END

> <RosettaParamsInstructions>
M  ROOT 7
M  POLY_N_BB 7
M  POLY_CA_BB 5
M  POLY_C_BB 3
M  POLY_O_BB 4
M  POLY_IGNORE 1 10 9 14 11 12 13 18 19 20
M  POLY_UPPER 2
M  POLY_LOWER 8
M  POLY_CHG 0
M  POLY_PROPERTIES PROTEIN POLYMER ALPHA_AA ALIPHATIC
M  END

$$$$
DHA_new
     RDKit          3D

 20 19  0  0  0  0  0  0  0  0999 V2000
    2.6311   -1.0405    2.6412 C   0  0  0  0  0  0  0  0  0  0  0  0
    1.6781   -0.2178    1.8650 N   0  0  0  0  0  0  0  0  0  0  0  0
    0.5437   -0.8265    1.3408 C   0  0  0  0  0  0  0  0  0  0  0  0
    0.3474   -2.0505    1.5317 O   0  0  0  0  0  0  0  0  0  0  0  0
   -0.4498   -0.0861    0.5610 C   0  0  0  0  0  0  0  0  0  0  0  0
   -0.2447    1.1911    0.3618 C   0  0  0  0  0  0  0  0  0  0  0  0
   -1.5983   -0.7348    0.0387 N   0  0  0  0  0  0  0  0  0  0  0  0
   -2.6428   -0.2273   -0.7128 C   0  0  0  0  0  0  0  0  0  0  0  0
   -3.7531   -1.1480   -1.1436 C   0  0  0  0  0  0  0  0  0  0  0  0
   -2.7499    0.9681   -1.0780 O   0  0  0  0  0  0  0  0  0  0  0  0
    3.4874   -1.3495    2.0086 H   0  0  0  0  0  0  0  0  0  0  0  0
    3.0061   -0.4479    3.4896 H   0  0  0  0  0  0  0  0  0  0  0  0
    2.1007   -1.9640    2.9994 H   0  0  0  0  0  0  0  0  0  0  0  0
    1.9503    0.7637    1.7806 H   0  0  0  0  0  0  0  0  0  0  0  0
    0.6158    1.7076    0.7456 H   0  0  0  0  0  0  0  0  0  0  0  0
   -0.9312    1.7845   -0.1976 H   0  0  0  0  0  0  0  0  0  0  0  0
   -1.6294   -1.7845    0.2845 H   0  0  0  0  0  0  0  0  0  0  0  0
   -4.2873   -0.7445   -2.0162 H   0  0  0  0  0  0  0  0  0  0  0  0
   -3.2505   -2.0815   -1.4632 H   0  0  0  0  0  0  0  0  0  0  0  0
   -4.4302   -1.3639   -0.2964 H   0  0  0  0  0  0  0  0  0  0  0  0
  1  2  1  0
  1 11  1  0
  1 12  1  0
  1 13  1  0
  2  3  1  0
  2 14  1  0
  3  4  2  0
  3  5  1  0
  5  6  2  3
  5  7  1  0
  6 15  1  0
  6 16  1  0
  7  8  1  0
  7 17  1  0
  8  9  1  0
  8 10  2  0
  9 18  1  0
  9 19  1  0
  9 20  1  0
M  END

> <RosettaParamsInstructions>
M  ROOT 7
M  POLY_N_BB 7
M  POLY_CA_BB 5
M  POLY_C_BB 3
M  POLY_O_BB 4
M  POLY_IGNORE 1 10 9 14 11 12 13 18 19 20
M  POLY_UPPER 2
M  POLY_LOWER 8
M  POLY_CHG 0
M  POLY_PROPERTIES PROTEIN POLYMER ALPHA_AA ALIPHATIC
M  END

$$$$
DHA_new
     RDKit          3D

 20 19  0  0  0  0  0  0  0  0999 V2000
    2.6785   -1.0678    2.6021 C   0  0  0  0  0  0  0  0  0  0  0  0
    1.7126   -0.2244    1.8879 N   0  0  0  0  0  0  0  0  0  0  0  0
    0.5677   -0.8076    1.3190 C   0  0  0  0  0  0  0  0  0  0  0  0
    0.4155   -2.0579    1.4491 O   0  0  0  0  0  0  0  0  0  0  0  0
   -0.4756   -0.0800    0.5798 C   0  0  0  0  0  0  0  0  0  0  0  0
   -0.3441    1.2121    0.4302 C   0  0  0  0  0  0  0  0  0  0  0  0
   -1.5943   -0.7589    0.0430 N   0  0  0  0  0  0  0  0  0  0  0  0
   -2.6593   -0.2219   -0.6754 C   0  0  0  0  0  0  0  0  0  0  0  0
   -3.7439   -1.1528   -1.1480 C   0  0  0  0  0  0  0  0  0  0  0  0
   -2.8182    0.9646   -0.9767 O   0  0  0  0  0  0  0  0  0  0  0  0
    3.6835   -0.7643    2.2012 H   0  0  0  0  0  0  0  0  0  0  0  0
    2.6116   -0.9328    3.6936 H   0  0  0  0  0  0  0  0  0  0  0  0
    2.4666   -2.1069    2.3291 H   0  0  0  0  0  0  0  0  0  0  0  0
    1.9623    0.7770    1.8594 H   0  0  0  0  0  0  0  0  0  0  0  0
    0.5440    1.7181    0.8621 H   0  0  0  0  0  0  0  0  0  0  0  0
   -1.0370    1.8466   -0.0873 H   0  0  0  0  0  0  0  0  0  0  0  0
   -1.5977   -1.8124    0.2259 H   0  0  0  0  0  0  0  0  0  0  0  0
   -3.3093   -2.1513   -1.2868 H   0  0  0  0  0  0  0  0  0  0  0  0
   -4.5617   -1.2188   -0.4117 H   0  0  0  0  0  0  0  0  0  0  0  0
   -4.1075   -0.8129   -2.1557 H   0  0  0  0  0  0  0  0  0  0  0  0
  1  2  1  0
  1 11  1  0
  1 12  1  0
  1 13  1  0
  2  3  1  0
  2 14  1  0
  3  4  2  0
  3  5  1  0
  5  6  2  3
  5  7  1  0
  6 15  1  0
  6 16  1  0
  7  8  1  0
  7 17  1  0
  8  9  1  0
  8 10  2  0
  9 18  1  0
  9 19  1  0
  9 20  1  0
M  END

> <RosettaParamsInstructions>
M  ROOT 7
M  POLY_N_BB 7
M  POLY_CA_BB 5
M  POLY_C_BB 3
M  POLY_O_BB 4
M  POLY_IGNORE 1 10 9 14 11 12 13 18 19 20
M  POLY_UPPER 2
M  POLY_LOWER 8
M  POLY_CHG 0
M  POLY_PROPERTIES PROTEIN POLYMER ALPHA_AA ALIPHATIC
M  END

$$$$
DHA_new
     RDKit          3D

 20 19  0  0  0  0  0  0  0  0999 V2000
    2.6658   -1.0457    2.6048 C   0  0  0  0  0  0  0  0  0  0  0  0
    1.6777   -0.2512    1.8425 N   0  0  0  0  0  0  0  0  0  0  0  0
    0.5322   -0.8673    1.3224 C   0  0  0  0  0  0  0  0  0  0  0  0
    0.3183   -2.1148    1.4931 O   0  0  0  0  0  0  0  0  0  0  0  0
   -0.4812   -0.1046    0.5529 C   0  0  0  0  0  0  0  0  0  0  0  0
   -0.2876    1.1672    0.3647 C   0  0  0  0  0  0  0  0  0  0  0  0
   -1.6095   -0.7628    0.0527 N   0  0  0  0  0  0  0  0  0  0  0  0
   -2.6355   -0.1869   -0.6799 C   0  0  0  0  0  0  0  0  0  0  0  0
   -3.7626   -1.1222   -1.1140 C   0  0  0  0  0  0  0  0  0  0  0  0
   -2.7790    1.0005   -1.0442 O   0  0  0  0  0  0  0  0  0  0  0  0
    3.6294   -0.9807    2.0587 H   0  0  0  0  0  0  0  0  0  0  0  0
    2.3786   -2.0960    2.6626 H   0  0  0  0  0  0  0  0  0  0  0  0
    2.8377   -0.5657    3.5950 H   0  0  0  0  0  0  0  0  0  0  0  0
    1.9355    0.7420    1.7575 H   0  0  0  0  0  0  0  0  0  0  0  0
    0.5882    1.6517    0.7592 H   0  0  0  0  0  0  0  0  0  0  0  0
   -0.9798    1.7676   -0.1797 H   0  0  0  0  0  0  0  0  0  0  0  0
   -1.6757   -1.8106    0.2620 H   0  0  0  0  0  0  0  0  0  0  0  0
   -4.6481   -0.5645   -1.4308 H   0  0  0  0  0  0  0  0  0  0  0  0
   -3.9582   -1.7658   -0.2160 H   0  0  0  0  0  0  0  0  0  0  0  0
   -3.3529   -1.7423   -1.9229 H   0  0  0  0  0  0  0  0  0  0  0  0
  1  2  1  0
  1 11  1  0
  1 12  1  0
  1 13  1  0
  2  3  1  0
  2 14  1  0
  3  4  2  0
  3  5  1  0
  5  6  2  3
  5  7  1  0
  6 15  1  0
  6 16  1  0
  7  8  1  0
  7 17  1  0
  8  9  1  0
  8 10  2  0
  9 18  1  0
  9 19  1  0
  9 20  1  0
M  END

> <RosettaParamsInstructions>
M  ROOT 7
M  POLY_N_BB 7
M  POLY_CA_BB 5
M  POLY_C_BB 3
M  POLY_O_BB 4
M  POLY_IGNORE 1 10 9 14 11 12 13 18 19 20
M  POLY_UPPER 2
M  POLY_LOWER 8
M  POLY_CHG 0
M  POLY_PROPERTIES PROTEIN POLYMER ALPHA_AA ALIPHATIC
M  END

$$$$
DHA_new
     RDKit          3D

 20 19  0  0  0  0  0  0  0  0999 V2000
    2.6794   -1.0607    2.5730 C   0  0  0  0  0  0  0  0  0  0  0  0
    1.6875   -0.2250    1.8651 N   0  0  0  0  0  0  0  0  0  0  0  0
    0.5662   -0.8437    1.3061 C   0  0  0  0  0  0  0  0  0  0  0  0
    0.4162   -2.0918    1.4112 O   0  0  0  0  0  0  0  0  0  0  0  0
   -0.4753   -0.1075    0.5845 C   0  0  0  0  0  0  0  0  0  0  0  0
   -0.3546    1.1949    0.4538 C   0  0  0  0  0  0  0  0  0  0  0  0
   -1.5772   -0.7798    0.0450 N   0  0  0  0  0  0  0  0  0  0  0  0
   -2.6401   -0.2378   -0.6590 C   0  0  0  0  0  0  0  0  0  0  0  0
   -3.7647   -1.1361   -1.1768 C   0  0  0  0  0  0  0  0  0  0  0  0
   -2.7973    0.9745   -0.9380 O   0  0  0  0  0  0  0  0  0  0  0  0
    2.6608   -2.0876    2.1871 H   0  0  0  0  0  0  0  0  0  0  0  0
    3.6967   -0.6505    2.3912 H   0  0  0  0  0  0  0  0  0  0  0  0
    2.5021   -1.0438    3.6659 H   0  0  0  0  0  0  0  0  0  0  0  0
    1.9029    0.7844    1.8349 H   0  0  0  0  0  0  0  0  0  0  0  0
    0.5123    1.7164    0.8793 H   0  0  0  0  0  0  0  0  0  0  0  0
   -1.0395    1.8546   -0.0478 H   0  0  0  0  0  0  0  0  0  0  0  0
   -1.6011   -1.8375    0.1944 H   0  0  0  0  0  0  0  0  0  0  0  0
   -4.7240   -0.5826   -1.1418 H   0  0  0  0  0  0  0  0  0  0  0  0
   -3.4904   -1.4669   -2.1906 H   0  0  0  0  0  0  0  0  0  0  0  0
   -3.7665   -2.0259   -0.4967 H   0  0  0  0  0  0  0  0  0  0  0  0
  1  2  1  0
  1 11  1  0
  1 12  1  0
  1 13  1  0
  2  3  1  0
  2 14  1  0
  3  4  2  0
  3  5  1  0
  5  6  2  3
  5  7  1  0
  6 15  1  0
  6 16  1  0
  7  8  1  0
  7 17  1  0
  8  9  1  0
  8 10  2  0
  9 18  1  0
  9 19  1  0
  9 20  1  0
M  END

> <RosettaParamsInstructions>
M  ROOT 7
M  POLY_N_BB 7
M  POLY_CA_BB 5
M  POLY_C_BB 3
M  POLY_O_BB 4
M  POLY_IGNORE 1 10 9 14 11 12 13 18 19 20
M  POLY_UPPER 2
M  POLY_LOWER 8
M  POLY_CHG 0
M  POLY_PROPERTIES PROTEIN POLYMER ALPHA_AA ALIPHATIC
M  END

$$$$
DHA_new
     RDKit          3D

 20 19  0  0  0  0  0  0  0  0999 V2000
    2.6798   -1.0535    2.5749 C   0  0  0  0  0  0  0  0  0  0  0  0
    1.6598   -0.2214    1.9131 N   0  0  0  0  0  0  0  0  0  0  0  0
    0.5666   -0.8440    1.2894 C   0  0  0  0  0  0  0  0  0  0  0  0
    0.4960   -2.1003    1.3177 O   0  0  0  0  0  0  0  0  0  0  0  0
   -0.5111   -0.0908    0.5973 C   0  0  0  0  0  0  0  0  0  0  0  0
   -0.4106    1.2024    0.5849 C   0  0  0  0  0  0  0  0  0  0  0  0
   -1.5644   -0.8159    0.0034 N   0  0  0  0  0  0  0  0  0  0  0  0
   -2.6307   -0.2125   -0.6733 C   0  0  0  0  0  0  0  0  0  0  0  0
   -3.6749   -1.1561   -1.2493 C   0  0  0  0  0  0  0  0  0  0  0  0
   -2.8460    0.9912   -0.8710 O   0  0  0  0  0  0  0  0  0  0  0  0
    2.9840   -0.6259    3.5431 H   0  0  0  0  0  0  0  0  0  0  0  0
    3.5820   -1.0483    1.9214 H   0  0  0  0  0  0  0  0  0  0  0  0
    2.3067   -2.0603    2.7521 H   0  0  0  0  0  0  0  0  0  0  0  0
    1.8259    0.7853    1.9564 H   0  0  0  0  0  0  0  0  0  0  0  0
    0.4204    1.7465    1.0550 H   0  0  0  0  0  0  0  0  0  0  0  0
   -1.1384    1.8349    0.1105 H   0  0  0  0  0  0  0  0  0  0  0  0
   -1.5644   -1.8857    0.0638 H   0  0  0  0  0  0  0  0  0  0  0  0
   -4.0621   -0.7473   -2.1955 H   0  0  0  0  0  0  0  0  0  0  0  0
   -4.4938   -1.1929   -0.5249 H   0  0  0  0  0  0  0  0  0  0  0  0
   -3.2312   -2.1573   -1.4280 H   0  0  0  0  0  0  0  0  0  0  0  0
  1  2  1  0
  1 11  1  0
  1 12  1  0
  1 13  1  0
  2  3  1  0
  2 14  1  0
  3  4  2  0
  3  5  1  0
  5  6  2  3
  5  7  1  0
  6 15  1  0
  6 16  1  0
  7  8  1  0
  7 17  1  0
  8  9  1  0
  8 10  2  0
  9 18  1  0
  9 19  1  0
  9 20  1  0
M  END

> <RosettaParamsInstructions>
M  ROOT 7
M  POLY_N_BB 7
M  POLY_CA_BB 5
M  POLY_C_BB 3
M  POLY_O_BB 4
M  POLY_IGNORE 1 10 9 14 11 12 13 18 19 20
M  POLY_UPPER 2
M  POLY_LOWER 8
M  POLY_CHG 0
M  POLY_PROPERTIES PROTEIN POLYMER ALPHA_AA ALIPHATIC
M  END

$$$$
DHA_new
     RDKit          3D

 20 19  0  0  0  0  0  0  0  0999 V2000
    2.6790   -0.2599    2.4858 C   0  0  0  0  0  0  0  0  0  0  0  0
    1.6366   -0.7864    1.8818 N   0  0  0  0  0  0  0  0  0  0  0  0
    0.4971   -1.3622    1.2215 C   0  0  0  0  0  0  0  0  0  0  0  0
    0.2742   -2.5805    1.1081 O   0  0  0  0  0  0  0  0  0  0  0  0
   -0.4846   -0.4271    0.6294 C   0  0  0  0  0  0  0  0  0  0  0  0
   -0.2349    0.8529    0.7427 C   0  0  0  0  0  0  0  0  0  0  0  0
   -1.6210   -0.9357   -0.0267 N   0  0  0  0  0  0  0  0  0  0  0  0
   -2.6671   -0.2469   -0.6598 C   0  0  0  0  0  0  0  0  0  0  0  0
   -3.8411   -0.8594   -1.3241 C   0  0  0  0  0  0  0  0  0  0  0  0
   -2.6436    1.0471   -0.6867 O   0  0  0  0  0  0  0  0  0  0  0  0
    2.5460    0.1103    3.5510 H   0  0  0  0  0  0  0  0  0  0  0  0
    2.9754    0.7428    1.9736 H   0  0  0  0  0  0  0  0  0  0  0  0
    3.6896   -0.8036    2.4707 H   0  0  0  0  0  0  0  0  0  0  0  0
    1.9840   -2.0567    2.2657 H   0  0  0  0  0  0  0  0  0  0  0  0
    0.6616    1.2421    1.2411 H   0  0  0  0  0  0  0  0  0  0  0  0
   -0.8829    1.6145    0.3671 H   0  0  0  0  0  0  0  0  0  0  0  0
   -1.7305   -2.0063   -0.0728 H   0  0  0  0  0  0  0  0  0  0  0  0
   -3.9767   -0.3422   -2.3147 H   0  0  0  0  0  0  0  0  0  0  0  0
   -4.7642   -0.6533   -0.7079 H   0  0  0  0  0  0  0  0  0  0  0  0
   -3.7034   -1.9417   -1.4050 H   0  0  0  0  0  0  0  0  0  0  0  0
  1  2  1  0
  1 11  1  0
  1 12  1  0
  1 13  1  0
  2  3  1  0
  2 14  1  0
  3  4  2  0
  3  5  1  0
  5  6  2  3
  5  7  1  0
  6 15  1  0
  6 16  1  0
  7  8  1  0
  7 17  1  0
  8  9  1  0
  8 10  2  0
  9 18  1  0
  9 19  1  0
  9 20  1  0
M  END

> <RosettaParamsInstructions>
M  ROOT 7
M  POLY_N_BB 7
M  POLY_CA_BB 5
M  POLY_C_BB 3
M  POLY_O_BB 4
M  POLY_IGNORE 1 10 9 14 11 12 13 18 19 20
M  POLY_UPPER 2
M  POLY_LOWER 8
M  POLY_CHG 0
M  POLY_PROPERTIES PROTEIN POLYMER ALPHA_AA ALIPHATIC
M  END

$$$$
DHA_new
     RDKit          3D

 20 19  0  0  0  0  0  0  0  0999 V2000
    2.6644   -1.0851    2.5638 C   0  0  0  0  0  0  0  0  0  0  0  0
    1.6975   -0.2258    1.8601 N   0  0  0  0  0  0  0  0  0  0  0  0
    0.5733   -0.8290    1.3003 C   0  0  0  0  0  0  0  0  0  0  0  0
    0.4141   -2.0808    1.4092 O   0  0  0  0  0  0  0  0  0  0  0  0
   -0.4542   -0.0446    0.5732 C   0  0  0  0  0  0  0  0  0  0  0  0
   -0.3199    1.2532    0.4424 C   0  0  0  0  0  0  0  0  0  0  0  0
   -1.5462   -0.7505    0.0489 N   0  0  0  0  0  0  0  0  0  0  0  0
   -2.6260   -0.2401   -0.6646 C   0  0  0  0  0  0  0  0  0  0  0  0
   -3.7196   -1.1697   -1.1538 C   0  0  0  0  0  0  0  0  0  0  0  0
   -2.7947    0.9578   -0.9564 O   0  0  0  0  0  0  0  0  0  0  0  0
    2.8229   -2.0055    1.9682 H   0  0  0  0  0  0  0  0  0  0  0  0
    3.5733   -0.5054    2.7472 H   0  0  0  0  0  0  0  0  0  0  0  0
    2.2401   -1.3694    3.5471 H   0  0  0  0  0  0  0  0  0  0  0  0
    1.8641    0.7889    1.7937 H   0  0  0  0  0  0  0  0  0  0  0  0
   -1.0439    1.8389   -0.0753 H   0  0  0  0  0  0  0  0  0  0  0  0
    0.5451    1.7853    0.8621 H   0  0  0  0  0  0  0  0  0  0  0  0
   -1.5613   -1.8097    0.2108 H   0  0  0  0  0  0  0  0  0  0  0  0
   -3.5058   -1.4222   -2.2043 H   0  0  0  0  0  0  0  0  0  0  0  0
   -4.6911   -0.6570   -1.0099 H   0  0  0  0  0  0  0  0  0  0  0  0
   -3.7385   -2.0816   -0.5218 H   0  0  0  0  0  0  0  0  0  0  0  0
  1  2  1  0
  1 11  1  0
  1 12  1  0
  1 13  1  0
  2  3  1  0
  2 14  1  0
  3  4  2  0
  3  5  1  0
  5  6  2  3
  5  7  1  0
  6 15  1  0
  6 16  1  0
  7  8  1  0
  7 17  1  0
  8  9  1  0
  8 10  2  0
  9 18  1  0
  9 19  1  0
  9 20  1  0
M  END

> <RosettaParamsInstructions>
M  ROOT 7
M  POLY_N_BB 7
M  POLY_CA_BB 5
M  POLY_C_BB 3
M  POLY_O_BB 4
M  POLY_IGNORE 1 10 9 14 11 12 13 18 19 20
M  POLY_UPPER 2
M  POLY_LOWER 8
M  POLY_CHG 0
M  POLY_PROPERTIES PROTEIN POLYMER ALPHA_AA ALIPHATIC
M  END

$$$$
DHA_new
     RDKit          3D

 20 19  0  0  0  0  0  0  0  0999 V2000
    2.6844   -1.0251    2.5833 C   0  0  0  0  0  0  0  0  0  0  0  0
    1.6914   -0.2172    1.8638 N   0  0  0  0  0  0  0  0  0  0  0  0
    0.5747   -0.8358    1.3176 C   0  0  0  0  0  0  0  0  0  0  0  0
    0.4055   -2.0984    1.4362 O   0  0  0  0  0  0  0  0  0  0  0  0
   -0.4560   -0.0799    0.5847 C   0  0  0  0  0  0  0  0  0  0  0  0
   -0.2976    1.2117    0.4547 C   0  0  0  0  0  0  0  0  0  0  0  0
   -1.5769   -0.7699    0.0478 N   0  0  0  0  0  0  0  0  0  0  0  0
   -2.6554   -0.2658   -0.6703 C   0  0  0  0  0  0  0  0  0  0  0  0
   -3.7711   -1.1659   -1.1679 C   0  0  0  0  0  0  0  0  0  0  0  0
   -2.8121    0.9370   -0.9694 O   0  0  0  0  0  0  0  0  0  0  0  0
    3.5991   -0.4585    2.8002 H   0  0  0  0  0  0  0  0  0  0  0  0
    2.2666   -1.4006    3.5307 H   0  0  0  0  0  0  0  0  0  0  0  0
    2.9221   -1.9354    1.9636 H   0  0  0  0  0  0  0  0  0  0  0  0
    1.8891    0.7854    1.8072 H   0  0  0  0  0  0  0  0  0  0  0  0
    0.5465    1.7516    0.8551 H   0  0  0  0  0  0  0  0  0  0  0  0
   -1.0112    1.8265   -0.0684 H   0  0  0  0  0  0  0  0  0  0  0  0
   -1.5839   -1.8242    0.2257 H   0  0  0  0  0  0  0  0  0  0  0  0
   -4.7169   -0.6976   -0.8724 H   0  0  0  0  0  0  0  0  0  0  0  0
   -3.6794   -2.1777   -0.7114 H   0  0  0  0  0  0  0  0  0  0  0  0
   -3.6254   -1.2124   -2.2701 H   0  0  0  0  0  0  0  0  0  0  0  0
  1  2  1  0
  1 11  1  0
  1 12  1  0
  1 13  1  0
  2  3  1  0
  2 14  1  0
  3  4  2  0
  3  5  1  0
  5  6  2  3
  5  7  1  0
  6 15  1  0
  6 16  1  0
  7  8  1  0
  7 17  1  0
  8  9  1  0
  8 10  2  0
  9 18  1  0
  9 19  1  0
  9 20  1  0
M  END

> <RosettaParamsInstructions>
M  ROOT 7
M  POLY_N_BB 7
M  POLY_CA_BB 5
M  POLY_C_BB 3
M  POLY_O_BB 4
M  POLY_IGNORE 1 10 9 14 11 12 13 18 19 20
M  POLY_UPPER 2
M  POLY_LOWER 8
M  POLY_CHG 0
M  POLY_PROPERTIES PROTEIN POLYMER ALPHA_AA ALIPHATIC
M  END

$$$$
DHA_new
     RDKit          3D

 20 19  0  0  0  0  0  0  0  0999 V2000
    2.6922   -1.0515    2.5253 C   0  0  0  0  0  0  0  0  0  0  0  0
    1.6883   -0.2361    1.8605 N   0  0  0  0  0  0  0  0  0  0  0  0
    0.5745   -0.8344    1.2848 C   0  0  0  0  0  0  0  0  0  0  0  0
    0.4640   -2.0980    1.3573 O   0  0  0  0  0  0  0  0  0  0  0  0
   -0.4632   -0.0660    0.6057 C   0  0  0  0  0  0  0  0  0  0  0  0
   -0.3221    1.2369    0.5465 C   0  0  0  0  0  0  0  0  0  0  0  0
   -1.5637   -0.7522    0.0470 N   0  0  0  0  0  0  0  0  0  0  0  0
   -2.6645   -0.2523   -0.6395 C   0  0  0  0  0  0  0  0  0  0  0  0
   -3.7555   -1.1616   -1.1686 C   0  0  0  0  0  0  0  0  0  0  0  0
   -2.8766    0.9586   -0.8917 O   0  0  0  0  0  0  0  0  0  0  0  0
    3.4656   -0.4319    3.0209 H   0  0  0  0  0  0  0  0  0  0  0  0
    2.1418   -1.6754    3.2644 H   0  0  0  0  0  0  0  0  0  0  0  0
    3.2370   -1.7050    1.8032 H   0  0  0  0  0  0  0  0  0  0  0  0
    1.8446    0.7777    1.8412 H   0  0  0  0  0  0  0  0  0  0  0  0
    0.4977    1.7967    0.9574 H   0  0  0  0  0  0  0  0  0  0  0  0
   -1.0717    1.8230    0.0527 H   0  0  0  0  0  0  0  0  0  0  0  0
   -1.5524   -1.8214    0.1686 H   0  0  0  0  0  0  0  0  0  0  0  0
   -4.7304   -0.8787   -0.7708 H   0  0  0  0  0  0  0  0  0  0  0  0
   -3.6730   -1.0856   -2.2704 H   0  0  0  0  0  0  0  0  0  0  0  0
   -3.5390   -2.1950   -0.8539 H   0  0  0  0  0  0  0  0  0  0  0  0
  1  2  1  0
  1 11  1  0
  1 12  1  0
  1 13  1  0
  2  3  1  0
  2 14  1  0
  3  4  2  0
  3  5  1  0
  5  6  2  3
  5  7  1  0
  6 15  1  0
  6 16  1  0
  7  8  1  0
  7 17  1  0
  8  9  1  0
  8 10  2  0
  9 18  1  0
  9 19  1  0
  9 20  1  0
M  END

> <RosettaParamsInstructions>
M  ROOT 7
M  POLY_N_BB 7
M  POLY_CA_BB 5
M  POLY_C_BB 3
M  POLY_O_BB 4
M  POLY_IGNORE 1 10 9 14 11 12 13 18 19 20
M  POLY_UPPER 2
M  POLY_LOWER 8
M  POLY_CHG 0
M  POLY_PROPERTIES PROTEIN POLYMER ALPHA_AA ALIPHATIC
M  END

$$$$
DHA_new
     RDKit          3D

 20 19  0  0  0  0  0  0  0  0999 V2000
    2.6934   -1.0387    2.5905 C   0  0  0  0  0  0  0  0  0  0  0  0
    1.6760   -0.2610    1.8664 N   0  0  0  0  0  0  0  0  0  0  0  0
    0.5475   -0.8582    1.3011 C   0  0  0  0  0  0  0  0  0  0  0  0
    0.4326   -2.1124    1.4378 O   0  0  0  0  0  0  0  0  0  0  0  0
   -0.4676   -0.0681    0.5763 C   0  0  0  0  0  0  0  0  0  0  0  0
   -0.3166    1.2187    0.4554 C   0  0  0  0  0  0  0  0  0  0  0  0
   -1.5661   -0.8001    0.0504 N   0  0  0  0  0  0  0  0  0  0  0  0
   -2.6277   -0.2566   -0.6615 C   0  0  0  0  0  0  0  0  0  0  0  0
   -3.7442   -1.1326   -1.1746 C   0  0  0  0  0  0  0  0  0  0  0  0
   -2.7524    0.9412   -0.9298 O   0  0  0  0  0  0  0  0  0  0  0  0
    3.6787   -0.6126    2.3289 H   0  0  0  0  0  0  0  0  0  0  0  0
    2.5563   -0.9675    3.6747 H   0  0  0  0  0  0  0  0  0  0  0  0
    2.5616   -2.0873    2.2653 H   0  0  0  0  0  0  0  0  0  0  0  0
    1.8397    0.7488    1.7982 H   0  0  0  0  0  0  0  0  0  0  0  0
    0.5369    1.7664    0.8675 H   0  0  0  0  0  0  0  0  0  0  0  0
   -1.0268    1.8168   -0.0590 H   0  0  0  0  0  0  0  0  0  0  0  0
   -1.6061   -1.8628    0.1999 H   0  0  0  0  0  0  0  0  0  0  0  0
   -3.8903   -1.9385   -0.4456 H   0  0  0  0  0  0  0  0  0  0  0  0
   -3.4457   -1.5638   -2.1316 H   0  0  0  0  0  0  0  0  0  0  0  0
   -4.6856   -0.5840   -1.2693 H   0  0  0  0  0  0  0  0  0  0  0  0
  1  2  1  0
  1 11  1  0
  1 12  1  0
  1 13  1  0
  2  3  1  0
  2 14  1  0
  3  4  2  0
  3  5  1  0
  5  6  2  3
  5  7  1  0
  6 15  1  0
  6 16  1  0
  7  8  1  0
  7 17  1  0
  8  9  1  0
  8 10  2  0
  9 18  1  0
  9 19  1  0
  9 20  1  0
M  END

> <RosettaParamsInstructions>
M  ROOT 7
M  POLY_N_BB 7
M  POLY_CA_BB 5
M  POLY_C_BB 3
M  POLY_O_BB 4
M  POLY_IGNORE 1 10 9 14 11 12 13 18 19 20
M  POLY_UPPER 2
M  POLY_LOWER 8
M  POLY_CHG 0
M  POLY_PROPERTIES PROTEIN POLYMER ALPHA_AA ALIPHATIC
M  END

$$$$
DHA_new
     RDKit          3D

 20 19  0  0  0  0  0  0  0  0999 V2000
    2.6470   -1.0309    2.6498 C   0  0  0  0  0  0  0  0  0  0  0  0
    1.6834   -0.2374    1.8629 N   0  0  0  0  0  0  0  0  0  0  0  0
    0.5447   -0.8297    1.3399 C   0  0  0  0  0  0  0  0  0  0  0  0
    0.3621   -2.0807    1.5635 O   0  0  0  0  0  0  0  0  0  0  0  0
   -0.4652   -0.1056    0.5438 C   0  0  0  0  0  0  0  0  0  0  0  0
   -0.2670    1.1696    0.3230 C   0  0  0  0  0  0  0  0  0  0  0  0
   -1.5978   -0.7853    0.0477 N   0  0  0  0  0  0  0  0  0  0  0  0
   -2.6166   -0.2389   -0.7064 C   0  0  0  0  0  0  0  0  0  0  0  0
   -3.7487   -1.1318   -1.1455 C   0  0  0  0  0  0  0  0  0  0  0  0
   -2.7402    0.9539   -1.0976 O   0  0  0  0  0  0  0  0  0  0  0  0
    3.6676   -0.6801    2.5021 H   0  0  0  0  0  0  0  0  0  0  0  0
    2.3606   -0.9122    3.6994 H   0  0  0  0  0  0  0  0  0  0  0  0
    2.5586   -2.1050    2.3919 H   0  0  0  0  0  0  0  0  0  0  0  0
    1.9597    0.7562    1.7637 H   0  0  0  0  0  0  0  0  0  0  0  0
    0.6241    1.6761    0.7208 H   0  0  0  0  0  0  0  0  0  0  0  0
   -0.9105    1.8245   -0.2357 H   0  0  0  0  0  0  0  0  0  0  0  0
   -1.6538   -1.8214    0.2899 H   0  0  0  0  0  0  0  0  0  0  0  0
   -3.5066   -1.4799   -2.1495 H   0  0  0  0  0  0  0  0  0  0  0  0
   -3.8165   -2.0089   -0.4680 H   0  0  0  0  0  0  0  0  0  0  0  0
   -4.6915   -0.5849   -1.1549 H   0  0  0  0  0  0  0  0  0  0  0  0
  1  2  1  0
  1 11  1  0
  1 12  1  0
  1 13  1  0
  2  3  1  0
  2 14  1  0
  3  4  2  0
  3  5  1  0
  5  6  2  3
  5  7  1  0
  6 15  1  0
  6 16  1  0
  7  8  1  0
  7 17  1  0
  8  9  1  0
  8 10  2  0
  9 18  1  0
  9 19  1  0
  9 20  1  0
M  END

> <RosettaParamsInstructions>
M  ROOT 7
M  POLY_N_BB 7
M  POLY_CA_BB 5
M  POLY_C_BB 3
M  POLY_O_BB 4
M  POLY_IGNORE 1 10 9 14 11 12 13 18 19 20
M  POLY_UPPER 2
M  POLY_LOWER 8
M  POLY_CHG 0
M  POLY_PROPERTIES PROTEIN POLYMER ALPHA_AA ALIPHATIC
M  END

$$$$
DHA_new
     RDKit          3D

 20 19  0  0  0  0  0  0  0  0999 V2000
    2.6439   -1.0636    2.5738 C   0  0  0  0  0  0  0  0  0  0  0  0
    1.6852   -0.2033    1.8648 N   0  0  0  0  0  0  0  0  0  0  0  0
    0.5724   -0.8169    1.3104 C   0  0  0  0  0  0  0  0  0  0  0  0
    0.4318   -2.0800    1.4378 O   0  0  0  0  0  0  0  0  0  0  0  0
   -0.4680   -0.0622    0.5708 C   0  0  0  0  0  0  0  0  0  0  0  0
   -0.3145    1.2203    0.4478 C   0  0  0  0  0  0  0  0  0  0  0  0
   -1.5712   -0.8050    0.0435 N   0  0  0  0  0  0  0  0  0  0  0  0
   -2.6183   -0.2274   -0.6706 C   0  0  0  0  0  0  0  0  0  0  0  0
   -3.7087   -1.1799   -1.1555 C   0  0  0  0  0  0  0  0  0  0  0  0
   -2.7564    0.9748   -0.9523 O   0  0  0  0  0  0  0  0  0  0  0  0
    3.4009   -0.4920    3.1098 H   0  0  0  0  0  0  0  0  0  0  0  0
    2.0359   -1.6569    3.2806 H   0  0  0  0  0  0  0  0  0  0  0  0
    3.1229   -1.6847    1.7911 H   0  0  0  0  0  0  0  0  0  0  0  0
    1.8883    0.8242    1.8136 H   0  0  0  0  0  0  0  0  0  0  0  0
   -1.0384    1.8172   -0.0788 H   0  0  0  0  0  0  0  0  0  0  0  0
    0.5553    1.7287    0.8763 H   0  0  0  0  0  0  0  0  0  0  0  0
   -1.5966   -1.8593    0.2041 H   0  0  0  0  0  0  0  0  0  0  0  0
   -3.4771   -1.4128   -2.2031 H   0  0  0  0  0  0  0  0  0  0  0  0
   -4.6526   -0.6170   -1.0259 H   0  0  0  0  0  0  0  0  0  0  0  0
   -3.7410   -2.0565   -0.4972 H   0  0  0  0  0  0  0  0  0  0  0  0
  1  2  1  0
  1 11  1  0
  1 12  1  0
  1 13  1  0
  2  3  1  0
  2 14  1  0
  3  4  2  0
  3  5  1  0
  5  6  2  3
  5  7  1  0
  6 15  1  0
  6 16  1  0
  7  8  1  0
  7 17  1  0
  8  9  1  0
  8 10  2  0
  9 18  1  0
  9 19  1  0
  9 20  1  0
M  END

> <RosettaParamsInstructions>
M  ROOT 7
M  POLY_N_BB 7
M  POLY_CA_BB 5
M  POLY_C_BB 3
M  POLY_O_BB 4
M  POLY_IGNORE 1 10 9 14 11 12 13 18 19 20
M  POLY_UPPER 2
M  POLY_LOWER 8
M  POLY_CHG 0
M  POLY_PROPERTIES PROTEIN POLYMER ALPHA_AA ALIPHATIC
M  END

$$$$
DHA_new
     RDKit          3D

 20 19  0  0  0  0  0  0  0  0999 V2000
    2.6822   -1.0598    2.6007 C   0  0  0  0  0  0  0  0  0  0  0  0
    1.7160   -0.2299    1.8842 N   0  0  0  0  0  0  0  0  0  0  0  0
    0.5827   -0.8318    1.3289 C   0  0  0  0  0  0  0  0  0  0  0  0
    0.4140   -2.0879    1.4575 O   0  0  0  0  0  0  0  0  0  0  0  0
   -0.4529   -0.0906    0.5878 C   0  0  0  0  0  0  0  0  0  0  0  0
   -0.3092    1.2039    0.4376 C   0  0  0  0  0  0  0  0  0  0  0  0
   -1.5748   -0.7556    0.0506 N   0  0  0  0  0  0  0  0  0  0  0  0
   -2.6477   -0.2499   -0.6699 C   0  0  0  0  0  0  0  0  0  0  0  0
   -3.7500   -1.1654   -1.1503 C   0  0  0  0  0  0  0  0  0  0  0  0
   -2.8151    0.9509   -0.9854 O   0  0  0  0  0  0  0  0  0  0  0  0
    2.1850   -1.9712    2.9274 H   0  0  0  0  0  0  0  0  0  0  0  0
    3.0815   -0.4746    3.4309 H   0  0  0  0  0  0  0  0  0  0  0  0
    3.4835   -1.3285    1.8778 H   0  0  0  0  0  0  0  0  0  0  0  0
    1.9228    0.7751    1.8231 H   0  0  0  0  0  0  0  0  0  0  0  0
    0.5503    1.7266    0.8467 H   0  0  0  0  0  0  0  0  0  0  0  0
   -1.0015    1.8510   -0.0853 H   0  0  0  0  0  0  0  0  0  0  0  0
   -1.5884   -1.8116    0.2338 H   0  0  0  0  0  0  0  0  0  0  0  0
   -3.7677   -2.0852   -0.5613 H   0  0  0  0  0  0  0  0  0  0  0  0
   -3.5940   -1.3546   -2.2370 H   0  0  0  0  0  0  0  0  0  0  0  0
   -4.7232   -0.6633   -1.0569 H   0  0  0  0  0  0  0  0  0  0  0  0
  1  2  1  0
  1 11  1  0
  1 12  1  0
  1 13  1  0
  2  3  1  0
  2 14  1  0
  3  4  2  0
  3  5  1  0
  5  6  2  3
  5  7  1  0
  6 15  1  0
  6 16  1  0
  7  8  1  0
  7 17  1  0
  8  9  1  0
  8 10  2  0
  9 18  1  0
  9 19  1  0
  9 20  1  0
M  END

> <RosettaParamsInstructions>
M  ROOT 7
M  POLY_N_BB 7
M  POLY_CA_BB 5
M  POLY_C_BB 3
M  POLY_O_BB 4
M  POLY_IGNORE 1 10 9 14 11 12 13 18 19 20
M  POLY_UPPER 2
M  POLY_LOWER 8
M  POLY_CHG 0
M  POLY_PROPERTIES PROTEIN POLYMER ALPHA_AA ALIPHATIC
M  END

$$$$
DHA_new
     RDKit          3D

 20 19  0  0  0  0  0  0  0  0999 V2000
    2.6793   -1.0409    2.6039 C   0  0  0  0  0  0  0  0  0  0  0  0
    1.6843   -0.2493    1.8814 N   0  0  0  0  0  0  0  0  0  0  0  0
    0.5478   -0.8479    1.3131 C   0  0  0  0  0  0  0  0  0  0  0  0
    0.4106   -2.0865    1.4438 O   0  0  0  0  0  0  0  0  0  0  0  0
   -0.4796   -0.1074    0.5803 C   0  0  0  0  0  0  0  0  0  0  0  0
   -0.3587    1.1841    0.4309 C   0  0  0  0  0  0  0  0  0  0  0  0
   -1.5695   -0.8177    0.0585 N   0  0  0  0  0  0  0  0  0  0  0  0
   -2.6254   -0.2478   -0.6620 C   0  0  0  0  0  0  0  0  0  0  0  0
   -3.7519   -1.1431   -1.1738 C   0  0  0  0  0  0  0  0  0  0  0  0
   -2.7990    0.9499   -0.9691 O   0  0  0  0  0  0  0  0  0  0  0  0
    2.9116   -0.6147    3.5952 H   0  0  0  0  0  0  0  0  0  0  0  0
    2.3853   -2.0813    2.7298 H   0  0  0  0  0  0  0  0  0  0  0  0
    3.6039   -0.9910    1.9887 H   0  0  0  0  0  0  0  0  0  0  0  0
    1.9115    0.7676    1.8417 H   0  0  0  0  0  0  0  0  0  0  0  0
    0.5112    1.6950    0.8569 H   0  0  0  0  0  0  0  0  0  0  0  0
   -1.0458    1.8053   -0.0807 H   0  0  0  0  0  0  0  0  0  0  0  0
   -1.5793   -1.8678    0.2322 H   0  0  0  0  0  0  0  0  0  0  0  0
   -3.7038   -1.1476   -2.2777 H   0  0  0  0  0  0  0  0  0  0  0  0
   -4.6968   -0.6524   -0.8675 H   0  0  0  0  0  0  0  0  0  0  0  0
   -3.6421   -2.1587   -0.7845 H   0  0  0  0  0  0  0  0  0  0  0  0
  1  2  1  0
  1 11  1  0
  1 12  1  0
  1 13  1  0
  2  3  1  0
  2 14  1  0
  3  4  2  0
  3  5  1  0
  5  6  2  3
  5  7  1  0
  6 15  1  0
  6 16  1  0
  7  8  1  0
  7 17  1  0
  8  9  1  0
  8 10  2  0
  9 18  1  0
  9 19  1  0
  9 20  1  0
M  END

> <RosettaParamsInstructions>
M  ROOT 7
M  POLY_N_BB 7
M  POLY_CA_BB 5
M  POLY_C_BB 3
M  POLY_O_BB 4
M  POLY_IGNORE 1 10 9 14 11 12 13 18 19 20
M  POLY_UPPER 2
M  POLY_LOWER 8
M  POLY_CHG 0
M  POLY_PROPERTIES PROTEIN POLYMER ALPHA_AA ALIPHATIC
M  END

$$$$
DHA_new
     RDKit          3D

 20 19  0  0  0  0  0  0  0  0999 V2000
    2.6683   -1.0551    2.5821 C   0  0  0  0  0  0  0  0  0  0  0  0
    1.6661   -0.1988    1.9205 N   0  0  0  0  0  0  0  0  0  0  0  0
    0.5868   -0.8574    1.3111 C   0  0  0  0  0  0  0  0  0  0  0  0
    0.4723   -2.1265    1.3248 O   0  0  0  0  0  0  0  0  0  0  0  0
   -0.4661   -0.0721    0.6235 C   0  0  0  0  0  0  0  0  0  0  0  0
   -0.4003    1.2427    0.5774 C   0  0  0  0  0  0  0  0  0  0  0  0
   -1.5374   -0.7833    0.0224 N   0  0  0  0  0  0  0  0  0  0  0  0
   -2.6305   -0.2544   -0.6729 C   0  0  0  0  0  0  0  0  0  0  0  0
   -3.6947   -1.1686   -1.2565 C   0  0  0  0  0  0  0  0  0  0  0  0
   -2.8523    0.9565   -0.8861 O   0  0  0  0  0  0  0  0  0  0  0  0
    3.2066   -0.4955    3.3680 H   0  0  0  0  0  0  0  0  0  0  0  0
    3.3977   -1.3385    1.8118 H   0  0  0  0  0  0  0  0  0  0  0  0
    2.1703   -1.9726    2.9515 H   0  0  0  0  0  0  0  0  0  0  0  0
    1.8212    0.8203    1.9478 H   0  0  0  0  0  0  0  0  0  0  0  0
    0.4310    1.7440    1.0471 H   0  0  0  0  0  0  0  0  0  0  0  0
   -1.1230    1.8786    0.0991 H   0  0  0  0  0  0  0  0  0  0  0  0
   -1.4928   -1.8493    0.1189 H   0  0  0  0  0  0  0  0  0  0  0  0
   -3.3777   -2.1999   -1.0930 H   0  0  0  0  0  0  0  0  0  0  0  0
   -3.8103   -0.9295   -2.3454 H   0  0  0  0  0  0  0  0  0  0  0  0
   -4.6416   -0.9927   -0.7112 H   0  0  0  0  0  0  0  0  0  0  0  0
  1  2  1  0
  1 11  1  0
  1 12  1  0
  1 13  1  0
  2  3  1  0
  2 14  1  0
  3  4  2  0
  3  5  1  0
  5  6  2  3
  5  7  1  0
  6 15  1  0
  6 16  1  0
  7  8  1  0
  7 17  1  0
  8  9  1  0
  8 10  2  0
  9 18  1  0
  9 19  1  0
  9 20  1  0
M  END

> <RosettaParamsInstructions>
M  ROOT 7
M  POLY_N_BB 7
M  POLY_CA_BB 5
M  POLY_C_BB 3
M  POLY_O_BB 4
M  POLY_IGNORE 1 10 9 14 11 12 13 18 19 20
M  POLY_UPPER 2
M  POLY_LOWER 8
M  POLY_CHG 0
M  POLY_PROPERTIES PROTEIN POLYMER ALPHA_AA ALIPHATIC
M  END

$$$$
DHA_new
     RDKit          3D

 20 19  0  0  0  0  0  0  0  0999 V2000
    2.6920   -1.0767    2.5558 C   0  0  0  0  0  0  0  0  0  0  0  0
    1.7117   -0.2361    1.8411 N   0  0  0  0  0  0  0  0  0  0  0  0
    0.5889   -0.8423    1.3084 C   0  0  0  0  0  0  0  0  0  0  0  0
    0.4187   -2.1035    1.4407 O   0  0  0  0  0  0  0  0  0  0  0  0
   -0.4403   -0.0916    0.5821 C   0  0  0  0  0  0  0  0  0  0  0  0
   -0.2810    1.2084    0.4365 C   0  0  0  0  0  0  0  0  0  0  0  0
   -1.5785   -0.7842    0.0564 N   0  0  0  0  0  0  0  0  0  0  0  0
   -2.6546   -0.2515   -0.6572 C   0  0  0  0  0  0  0  0  0  0  0  0
   -3.7671   -1.1564   -1.1295 C   0  0  0  0  0  0  0  0  0  0  0  0
   -2.8109    0.9468   -0.9650 O   0  0  0  0  0  0  0  0  0  0  0  0
    2.6411   -2.0863    2.1352 H   0  0  0  0  0  0  0  0  0  0  0  0
    2.4968   -1.0246    3.6417 H   0  0  0  0  0  0  0  0  0  0  0  0
    3.6949   -0.6688    2.3200 H   0  0  0  0  0  0  0  0  0  0  0  0
    1.8920    0.7728    1.7605 H   0  0  0  0  0  0  0  0  0  0  0  0
   -1.0010    1.8296   -0.0891 H   0  0  0  0  0  0  0  0  0  0  0  0
    0.5645    1.7459    0.8228 H   0  0  0  0  0  0  0  0  0  0  0  0
   -1.5757   -1.8374    0.2498 H   0  0  0  0  0  0  0  0  0  0  0  0
   -3.7082   -2.0878   -0.5527 H   0  0  0  0  0  0  0  0  0  0  0  0
   -4.7159   -0.6393   -0.8037 H   0  0  0  0  0  0  0  0  0  0  0  0
   -3.7739   -1.2690   -2.2129 H   0  0  0  0  0  0  0  0  0  0  0  0
  1  2  1  0
  1 11  1  0
  1 12  1  0
  1 13  1  0
  2  3  1  0
  2 14  1  0
  3  4  2  0
  3  5  1  0
  5  6  2  3
  5  7  1  0
  6 15  1  0
  6 16  1  0
  7  8  1  0
  7 17  1  0
  8  9  1  0
  8 10  2  0
  9 18  1  0
  9 19  1  0
  9 20  1  0
M  END

> <RosettaParamsInstructions>
M  ROOT 7
M  POLY_N_BB 7
M  POLY_CA_BB 5
M  POLY_C_BB 3
M  POLY_O_BB 4
M  POLY_IGNORE 1 10 9 14 11 12 13 18 19 20
M  POLY_UPPER 2
M  POLY_LOWER 8
M  POLY_CHG 0
M  POLY_PROPERTIES PROTEIN POLYMER ALPHA_AA ALIPHATIC
M  END

$$$$
DHA_new
     RDKit          3D

 20 19  0  0  0  0  0  0  0  0999 V2000
    2.7129   -1.0339    2.5569 C   0  0  0  0  0  0  0  0  0  0  0  0
    1.6874   -0.2172    1.8529 N   0  0  0  0  0  0  0  0  0  0  0  0
    0.5826   -0.8813    1.3037 C   0  0  0  0  0  0  0  0  0  0  0  0
    0.4716   -2.1387    1.4099 O   0  0  0  0  0  0  0  0  0  0  0  0
   -0.4735   -0.1182    0.5893 C   0  0  0  0  0  0  0  0  0  0  0  0
   -0.3650    1.1835    0.4758 C   0  0  0  0  0  0  0  0  0  0  0  0
   -1.5604   -0.8233    0.0561 N   0  0  0  0  0  0  0  0  0  0  0  0
   -2.6277   -0.2700   -0.6363 C   0  0  0  0  0  0  0  0  0  0  0  0
   -3.7485   -1.1383   -1.1670 C   0  0  0  0  0  0  0  0  0  0  0  0
   -2.7848    0.9464   -0.8919 O   0  0  0  0  0  0  0  0  0  0  0  0
    3.1689   -0.4374    3.3521 H   0  0  0  0  0  0  0  0  0  0  0  0
    2.1549   -1.8513    3.0350 H   0  0  0  0  0  0  0  0  0  0  0  0
    3.4213   -1.3811    1.7886 H   0  0  0  0  0  0  0  0  0  0  0  0
    1.8915    0.7977    1.8331 H   0  0  0  0  0  0  0  0  0  0  0  0
   -1.0498    1.8576   -0.0118 H   0  0  0  0  0  0  0  0  0  0  0  0
    0.5016    1.7274    0.9034 H   0  0  0  0  0  0  0  0  0  0  0  0
   -1.5836   -1.8833    0.1863 H   0  0  0  0  0  0  0  0  0  0  0  0
   -3.4721   -2.2045   -1.0524 H   0  0  0  0  0  0  0  0  0  0  0  0
   -4.6622   -0.9000   -0.6168 H   0  0  0  0  0  0  0  0  0  0  0  0
   -3.8715   -0.8863   -2.2261 H   0  0  0  0  0  0  0  0  0  0  0  0
  1  2  1  0
  1 11  1  0
  1 12  1  0
  1 13  1  0
  2  3  1  0
  2 14  1  0
  3  4  2  0
  3  5  1  0
  5  6  2  3
  5  7  1  0
  6 15  1  0
  6 16  1  0
  7  8  1  0
  7 17  1  0
  8  9  1  0
  8 10  2  0
  9 18  1  0
  9 19  1  0
  9 20  1  0
M  END

> <RosettaParamsInstructions>
M  ROOT 7
M  POLY_N_BB 7
M  POLY_CA_BB 5
M  POLY_C_BB 3
M  POLY_O_BB 4
M  POLY_IGNORE 1 10 9 14 11 12 13 18 19 20
M  POLY_UPPER 2
M  POLY_LOWER 8
M  POLY_CHG 0
M  POLY_PROPERTIES PROTEIN POLYMER ALPHA_AA ALIPHATIC
M  END

$$$$
DHA_new
     RDKit          3D

 20 19  0  0  0  0  0  0  0  0999 V2000
    2.6803   -1.0637    2.5636 C   0  0  0  0  0  0  0  0  0  0  0  0
    1.7042   -0.2540    1.8211 N   0  0  0  0  0  0  0  0  0  0  0  0
    0.5584   -0.8392    1.3062 C   0  0  0  0  0  0  0  0  0  0  0  0
    0.3532   -2.0731    1.4762 O   0  0  0  0  0  0  0  0  0  0  0  0
   -0.4460   -0.0865    0.5609 C   0  0  0  0  0  0  0  0  0  0  0  0
   -0.2773    1.1877    0.3608 C   0  0  0  0  0  0  0  0  0  0  0  0
   -1.5921   -0.7770    0.0703 N   0  0  0  0  0  0  0  0  0  0  0  0
   -2.6449   -0.2433   -0.6517 C   0  0  0  0  0  0  0  0  0  0  0  0
   -3.7806   -1.1490   -1.0864 C   0  0  0  0  0  0  0  0  0  0  0  0
   -2.7134    0.9580   -0.9696 O   0  0  0  0  0  0  0  0  0  0  0  0
    2.5684   -2.1042    2.2026 H   0  0  0  0  0  0  0  0  0  0  0  0
    2.4459   -1.0033    3.6492 H   0  0  0  0  0  0  0  0  0  0  0  0
    3.6854   -0.6406    2.3800 H   0  0  0  0  0  0  0  0  0  0  0  0
    1.9151    0.7453    1.7088 H   0  0  0  0  0  0  0  0  0  0  0  0
    0.6101    1.6922    0.7476 H   0  0  0  0  0  0  0  0  0  0  0  0
   -0.9525    1.8479   -0.1761 H   0  0  0  0  0  0  0  0  0  0  0  0
   -1.6665   -1.8351    0.2737 H   0  0  0  0  0  0  0  0  0  0  0  0
   -4.6977   -0.5871   -0.8951 H   0  0  0  0  0  0  0  0  0  0  0  0
   -3.5808   -1.3674   -2.1493 H   0  0  0  0  0  0  0  0  0  0  0  0
   -3.7759   -2.0598   -0.4520 H   0  0  0  0  0  0  0  0  0  0  0  0
  1  2  1  0
  1 11  1  0
  1 12  1  0
  1 13  1  0
  2  3  1  0
  2 14  1  0
  3  4  2  0
  3  5  1  0
  5  6  2  3
  5  7  1  0
  6 15  1  0
  6 16  1  0
  7  8  1  0
  7 17  1  0
  8  9  1  0
  8 10  2  0
  9 18  1  0
  9 19  1  0
  9 20  1  0
M  END

> <RosettaParamsInstructions>
M  ROOT 7
M  POLY_N_BB 7
M  POLY_CA_BB 5
M  POLY_C_BB 3
M  POLY_O_BB 4
M  POLY_IGNORE 1 10 9 14 11 12 13 18 19 20
M  POLY_UPPER 2
M  POLY_LOWER 8
M  POLY_CHG 0
M  POLY_PROPERTIES PROTEIN POLYMER ALPHA_AA ALIPHATIC
M  END

$$$$
DHA_new
     RDKit          3D

 20 19  0  0  0  0  0  0  0  0999 V2000
    2.6338   -1.0415    2.6795 C   0  0  0  0  0  0  0  0  0  0  0  0
    1.6734   -0.2325    1.8779 N   0  0  0  0  0  0  0  0  0  0  0  0
    0.5351   -0.8366    1.3554 C   0  0  0  0  0  0  0  0  0  0  0  0
    0.2987   -2.0806    1.5529 O   0  0  0  0  0  0  0  0  0  0  0  0
   -0.4456   -0.0958    0.5602 C   0  0  0  0  0  0  0  0  0  0  0  0
   -0.2543    1.1811    0.3265 C   0  0  0  0  0  0  0  0  0  0  0  0
   -1.5938   -0.7665    0.0499 N   0  0  0  0  0  0  0  0  0  0  0  0
   -2.6127   -0.2128   -0.7172 C   0  0  0  0  0  0  0  0  0  0  0  0
   -3.7435   -1.1371   -1.1476 C   0  0  0  0  0  0  0  0  0  0  0  0
   -2.7079    0.9713   -1.0986 O   0  0  0  0  0  0  0  0  0  0  0  0
    2.2758   -2.0974    2.7057 H   0  0  0  0  0  0  0  0  0  0  0  0
    3.5819   -0.9832    2.0917 H   0  0  0  0  0  0  0  0  0  0  0  0
    2.7058   -0.6237    3.6831 H   0  0  0  0  0  0  0  0  0  0  0  0
    1.9089    0.7605    1.7486 H   0  0  0  0  0  0  0  0  0  0  0  0
    0.6237    1.6648    0.7247 H   0  0  0  0  0  0  0  0  0  0  0  0
   -0.9047    1.8069   -0.2377 H   0  0  0  0  0  0  0  0  0  0  0  0
   -1.6550   -1.7998    0.2956 H   0  0  0  0  0  0  0  0  0  0  0  0
   -4.1629   -0.7838   -2.0892 H   0  0  0  0  0  0  0  0  0  0  0  0
   -3.2949   -2.1610   -1.2874 H   0  0  0  0  0  0  0  0  0  0  0  0
   -4.4685   -1.1846   -0.3332 H   0  0  0  0  0  0  0  0  0  0  0  0
  1  2  1  0
  1 11  1  0
  1 12  1  0
  1 13  1  0
  2  3  1  0
  2 14  1  0
  3  4  2  0
  3  5  1  0
  5  6  2  3
  5  7  1  0
  6 15  1  0
  6 16  1  0
  7  8  1  0
  7 17  1  0
  8  9  1  0
  8 10  2  0
  9 18  1  0
  9 19  1  0
  9 20  1  0
M  END

> <RosettaParamsInstructions>
M  ROOT 7
M  POLY_N_BB 7
M  POLY_CA_BB 5
M  POLY_C_BB 3
M  POLY_O_BB 4
M  POLY_IGNORE 1 10 9 14 11 12 13 18 19 20
M  POLY_UPPER 2
M  POLY_LOWER 8
M  POLY_CHG 0
M  POLY_PROPERTIES PROTEIN POLYMER ALPHA_AA ALIPHATIC
M  END

$$$$
DHA_new
     RDKit          3D

 20 19  0  0  0  0  0  0  0  0999 V2000
    2.6751   -1.0428    2.5572 C   0  0  0  0  0  0  0  0  0  0  0  0
    1.6887   -0.2287    1.8531 N   0  0  0  0  0  0  0  0  0  0  0  0
    0.5711   -0.8420    1.2913 C   0  0  0  0  0  0  0  0  0  0  0  0
    0.4226   -2.1041    1.3978 O   0  0  0  0  0  0  0  0  0  0  0  0
   -0.4487   -0.0531    0.5716 C   0  0  0  0  0  0  0  0  0  0  0  0
   -0.3028    1.2336    0.4597 C   0  0  0  0  0  0  0  0  0  0  0  0
   -1.5570   -0.7673    0.0303 N   0  0  0  0  0  0  0  0  0  0  0  0
   -2.6363   -0.2565   -0.6818 C   0  0  0  0  0  0  0  0  0  0  0  0
   -3.7224   -1.1804   -1.1778 C   0  0  0  0  0  0  0  0  0  0  0  0
   -2.7662    0.9427   -0.9422 O   0  0  0  0  0  0  0  0  0  0  0  0
    2.1414   -1.4964    3.4397 H   0  0  0  0  0  0  0  0  0  0  0  0
    3.0726   -1.8440    1.9115 H   0  0  0  0  0  0  0  0  0  0  0  0
    3.4960   -0.4247    2.9669 H   0  0  0  0  0  0  0  0  0  0  0  0
    1.8721    0.7674    1.8077 H   0  0  0  0  0  0  0  0  0  0  0  0
   -1.0145    1.8558   -0.0535 H   0  0  0  0  0  0  0  0  0  0  0  0
    0.5534    1.7470    0.8836 H   0  0  0  0  0  0  0  0  0  0  0  0
   -1.5660   -1.8288    0.1881 H   0  0  0  0  0  0  0  0  0  0  0  0
   -3.4075   -2.2262   -1.1701 H   0  0  0  0  0  0  0  0  0  0  0  0
   -4.1187   -0.8265   -2.1482 H   0  0  0  0  0  0  0  0  0  0  0  0
   -4.5594   -1.0772   -0.4439 H   0  0  0  0  0  0  0  0  0  0  0  0
  1  2  1  0
  1 11  1  0
  1 12  1  0
  1 13  1  0
  2  3  1  0
  2 14  1  0
  3  4  2  0
  3  5  1  0
  5  6  2  3
  5  7  1  0
  6 15  1  0
  6 16  1  0
  7  8  1  0
  7 17  1  0
  8  9  1  0
  8 10  2  0
  9 18  1  0
  9 19  1  0
  9 20  1  0
M  END

> <RosettaParamsInstructions>
M  ROOT 7
M  POLY_N_BB 7
M  POLY_CA_BB 5
M  POLY_C_BB 3
M  POLY_O_BB 4
M  POLY_IGNORE 1 10 9 14 11 12 13 18 19 20
M  POLY_UPPER 2
M  POLY_LOWER 8
M  POLY_CHG 0
M  POLY_PROPERTIES PROTEIN POLYMER ALPHA_AA ALIPHATIC
M  END

$$$$
DHA_new
     RDKit          3D

 20 19  0  0  0  0  0  0  0  0999 V2000
    2.6681   -1.0451    2.5882 C   0  0  0  0  0  0  0  0  0  0  0  0
    1.6771   -0.2185    1.8648 N   0  0  0  0  0  0  0  0  0  0  0  0
    0.5477   -0.8312    1.3066 C   0  0  0  0  0  0  0  0  0  0  0  0
    0.4072   -2.0790    1.4378 O   0  0  0  0  0  0  0  0  0  0  0  0
   -0.4580   -0.0457    0.5815 C   0  0  0  0  0  0  0  0  0  0  0  0
   -0.3021    1.2550    0.4502 C   0  0  0  0  0  0  0  0  0  0  0  0
   -1.5751   -0.7552    0.0471 N   0  0  0  0  0  0  0  0  0  0  0  0
   -2.6529   -0.2315   -0.6755 C   0  0  0  0  0  0  0  0  0  0  0  0
   -3.7453   -1.1653   -1.1570 C   0  0  0  0  0  0  0  0  0  0  0  0
   -2.7854    0.9790   -0.9608 O   0  0  0  0  0  0  0  0  0  0  0  0
    3.0955   -0.4923    3.4270 H   0  0  0  0  0  0  0  0  0  0  0  0
    2.1382   -1.9788    2.9290 H   0  0  0  0  0  0  0  0  0  0  0  0
    3.4038   -1.3847    1.8404 H   0  0  0  0  0  0  0  0  0  0  0  0
    1.9260    0.7800    1.8398 H   0  0  0  0  0  0  0  0  0  0  0  0
    0.5640    1.7222    0.8786 H   0  0  0  0  0  0  0  0  0  0  0  0
   -0.9932    1.9085   -0.0676 H   0  0  0  0  0  0  0  0  0  0  0  0
   -1.5685   -1.8095    0.2316 H   0  0  0  0  0  0  0  0  0  0  0  0
   -4.7359   -0.7995   -0.8642 H   0  0  0  0  0  0  0  0  0  0  0  0
   -3.6019   -2.1692   -0.7046 H   0  0  0  0  0  0  0  0  0  0  0  0
   -3.6159   -1.2916   -2.2521 H   0  0  0  0  0  0  0  0  0  0  0  0
  1  2  1  0
  1 11  1  0
  1 12  1  0
  1 13  1  0
  2  3  1  0
  2 14  1  0
  3  4  2  0
  3  5  1  0
  5  6  2  3
  5  7  1  0
  6 15  1  0
  6 16  1  0
  7  8  1  0
  7 17  1  0
  8  9  1  0
  8 10  2  0
  9 18  1  0
  9 19  1  0
  9 20  1  0
M  END

> <RosettaParamsInstructions>
M  ROOT 7
M  POLY_N_BB 7
M  POLY_CA_BB 5
M  POLY_C_BB 3
M  POLY_O_BB 4
M  POLY_IGNORE 1 10 9 14 11 12 13 18 19 20
M  POLY_UPPER 2
M  POLY_LOWER 8
M  POLY_CHG 0
M  POLY_PROPERTIES PROTEIN POLYMER ALPHA_AA ALIPHATIC
M  END

$$$$
DHA_new
     RDKit          3D

 20 19  0  0  0  0  0  0  0  0999 V2000
    2.6793   -1.0708    2.6088 C   0  0  0  0  0  0  0  0  0  0  0  0
    1.7024   -0.2324    1.8899 N   0  0  0  0  0  0  0  0  0  0  0  0
    0.5656   -0.8114    1.3165 C   0  0  0  0  0  0  0  0  0  0  0  0
    0.4015   -2.0646    1.4317 O   0  0  0  0  0  0  0  0  0  0  0  0
   -0.4570   -0.0666    0.5864 C   0  0  0  0  0  0  0  0  0  0  0  0
   -0.3456    1.2218    0.4342 C   0  0  0  0  0  0  0  0  0  0  0  0
   -1.5789   -0.7563    0.0405 N   0  0  0  0  0  0  0  0  0  0  0  0
   -2.6392   -0.2223   -0.6761 C   0  0  0  0  0  0  0  0  0  0  0  0
   -3.7311   -1.1406   -1.1656 C   0  0  0  0  0  0  0  0  0  0  0  0
   -2.7733    0.9647   -0.9562 O   0  0  0  0  0  0  0  0  0  0  0  0
    3.1740   -0.4883    3.4128 H   0  0  0  0  0  0  0  0  0  0  0  0
    2.1350   -1.9511    2.9538 H   0  0  0  0  0  0  0  0  0  0  0  0
    3.4343   -1.3830    1.8426 H   0  0  0  0  0  0  0  0  0  0  0  0
    1.8866    0.7850    1.8265 H   0  0  0  0  0  0  0  0  0  0  0  0
    0.5239    1.7471    0.8588 H   0  0  0  0  0  0  0  0  0  0  0  0
   -1.0323    1.8472   -0.0773 H   0  0  0  0  0  0  0  0  0  0  0  0
   -1.6227   -1.8315    0.1967 H   0  0  0  0  0  0  0  0  0  0  0  0
   -3.4071   -1.7017   -2.0648 H   0  0  0  0  0  0  0  0  0  0  0  0
   -4.6608   -0.6025   -1.3688 H   0  0  0  0  0  0  0  0  0  0  0  0
   -3.8612   -1.8949   -0.3492 H   0  0  0  0  0  0  0  0  0  0  0  0
  1  2  1  0
  1 11  1  0
  1 12  1  0
  1 13  1  0
  2  3  1  0
  2 14  1  0
  3  4  2  0
  3  5  1  0
  5  6  2  3
  5  7  1  0
  6 15  1  0
  6 16  1  0
  7  8  1  0
  7 17  1  0
  8  9  1  0
  8 10  2  0
  9 18  1  0
  9 19  1  0
  9 20  1  0
M  END

> <RosettaParamsInstructions>
M  ROOT 7
M  POLY_N_BB 7
M  POLY_CA_BB 5
M  POLY_C_BB 3
M  POLY_O_BB 4
M  POLY_IGNORE 1 10 9 14 11 12 13 18 19 20
M  POLY_UPPER 2
M  POLY_LOWER 8
M  POLY_CHG 0
M  POLY_PROPERTIES PROTEIN POLYMER ALPHA_AA ALIPHATIC
M  END

$$$$
DHA_new
     RDKit          3D

 20 19  0  0  0  0  0  0  0  0999 V2000
    2.7080   -1.0332    2.5934 C   0  0  0  0  0  0  0  0  0  0  0  0
    1.6949   -0.2251    1.8696 N   0  0  0  0  0  0  0  0  0  0  0  0
    0.5710   -0.8448    1.3084 C   0  0  0  0  0  0  0  0  0  0  0  0
    0.4482   -2.1044    1.4372 O   0  0  0  0  0  0  0  0  0  0  0  0
   -0.4604   -0.0927    0.5827 C   0  0  0  0  0  0  0  0  0  0  0  0
   -0.3438    1.2038    0.4444 C   0  0  0  0  0  0  0  0  0  0  0  0
   -1.5711   -0.7739    0.0392 N   0  0  0  0  0  0  0  0  0  0  0  0
   -2.6427   -0.2360   -0.6759 C   0  0  0  0  0  0  0  0  0  0  0  0
   -3.7449   -1.1441   -1.1784 C   0  0  0  0  0  0  0  0  0  0  0  0
   -2.7957    0.9619   -0.9569 O   0  0  0  0  0  0  0  0  0  0  0  0
    2.5710   -2.0964    2.2445 H   0  0  0  0  0  0  0  0  0  0  0  0
    3.6998   -0.6460    2.3356 H   0  0  0  0  0  0  0  0  0  0  0  0
    2.4750   -1.0292    3.6708 H   0  0  0  0  0  0  0  0  0  0  0  0
    1.9124    0.7895    1.8356 H   0  0  0  0  0  0  0  0  0  0  0  0
   -1.0236    1.8467   -0.0573 H   0  0  0  0  0  0  0  0  0  0  0  0
    0.5284    1.6964    0.8781 H   0  0  0  0  0  0  0  0  0  0  0  0
   -1.5600   -1.8342    0.2148 H   0  0  0  0  0  0  0  0  0  0  0  0
   -3.4136   -2.1965   -1.1940 H   0  0  0  0  0  0  0  0  0  0  0  0
   -4.0622   -0.8412   -2.1805 H   0  0  0  0  0  0  0  0  0  0  0  0
   -4.5973   -1.0528   -0.4705 H   0  0  0  0  0  0  0  0  0  0  0  0
  1  2  1  0
  1 11  1  0
  1 12  1  0
  1 13  1  0
  2  3  1  0
  2 14  1  0
  3  4  2  0
  3  5  1  0
  5  6  2  3
  5  7  1  0
  6 15  1  0
  6 16  1  0
  7  8  1  0
  7 17  1  0
  8  9  1  0
  8 10  2  0
  9 18  1  0
  9 19  1  0
  9 20  1  0
M  END

> <RosettaParamsInstructions>
M  ROOT 7
M  POLY_N_BB 7
M  POLY_CA_BB 5
M  POLY_C_BB 3
M  POLY_O_BB 4
M  POLY_IGNORE 1 10 9 14 11 12 13 18 19 20
M  POLY_UPPER 2
M  POLY_LOWER 8
M  POLY_CHG 0
M  POLY_PROPERTIES PROTEIN POLYMER ALPHA_AA ALIPHATIC
M  END

$$$$
DHA_new
     RDKit          3D

 20 19  0  0  0  0  0  0  0  0999 V2000
    2.6730   -1.0604    2.5716 C   0  0  0  0  0  0  0  0  0  0  0  0
    1.6927   -0.2094    1.8597 N   0  0  0  0  0  0  0  0  0  0  0  0
    0.5812   -0.8338    1.3083 C   0  0  0  0  0  0  0  0  0  0  0  0
    0.4250   -2.0725    1.4160 O   0  0  0  0  0  0  0  0  0  0  0  0
   -0.4582   -0.0802    0.5774 C   0  0  0  0  0  0  0  0  0  0  0  0
   -0.3403    1.2136    0.4384 C   0  0  0  0  0  0  0  0  0  0  0  0
   -1.5605   -0.7769    0.0431 N   0  0  0  0  0  0  0  0  0  0  0  0
   -2.6156   -0.2459   -0.6612 C   0  0  0  0  0  0  0  0  0  0  0  0
   -3.7229   -1.1632   -1.1630 C   0  0  0  0  0  0  0  0  0  0  0  0
   -2.7485    0.9620   -0.9335 O   0  0  0  0  0  0  0  0  0  0  0  0
    3.6406   -0.5612    2.6367 H   0  0  0  0  0  0  0  0  0  0  0  0
    2.2957   -1.2300    3.5971 H   0  0  0  0  0  0  0  0  0  0  0  0
    2.7394   -2.0284    2.0323 H   0  0  0  0  0  0  0  0  0  0  0  0
    1.8609    0.7918    1.7972 H   0  0  0  0  0  0  0  0  0  0  0  0
   -1.0390    1.8280   -0.0703 H   0  0  0  0  0  0  0  0  0  0  0  0
    0.5194    1.7558    0.8553 H   0  0  0  0  0  0  0  0  0  0  0  0
   -1.5681   -1.8381    0.2094 H   0  0  0  0  0  0  0  0  0  0  0  0
   -3.7850   -2.0258   -0.4770 H   0  0  0  0  0  0  0  0  0  0  0  0
   -3.5240   -1.4748   -2.1952 H   0  0  0  0  0  0  0  0  0  0  0  0
   -4.6726   -0.6031   -1.1013 H   0  0  0  0  0  0  0  0  0  0  0  0
  1  2  1  0
  1 11  1  0
  1 12  1  0
  1 13  1  0
  2  3  1  0
  2 14  1  0
  3  4  2  0
  3  5  1  0
  5  6  2  3
  5  7  1  0
  6 15  1  0
  6 16  1  0
  7  8  1  0
  7 17  1  0
  8  9  1  0
  8 10  2  0
  9 18  1  0
  9 19  1  0
  9 20  1  0
M  END

> <RosettaParamsInstructions>
M  ROOT 7
M  POLY_N_BB 7
M  POLY_CA_BB 5
M  POLY_C_BB 3
M  POLY_O_BB 4
M  POLY_IGNORE 1 10 9 14 11 12 13 18 19 20
M  POLY_UPPER 2
M  POLY_LOWER 8
M  POLY_CHG 0
M  POLY_PROPERTIES PROTEIN POLYMER ALPHA_AA ALIPHATIC
M  END

$$$$
DHA_new
     RDKit          3D

 20 19  0  0  0  0  0  0  0  0999 V2000
    2.6830   -1.0271    2.5813 C   0  0  0  0  0  0  0  0  0  0  0  0
    1.6923   -0.2122    1.8517 N   0  0  0  0  0  0  0  0  0  0  0  0
    0.5809   -0.8301    1.3276 C   0  0  0  0  0  0  0  0  0  0  0  0
    0.4047   -2.0675    1.4635 O   0  0  0  0  0  0  0  0  0  0  0  0
   -0.4622   -0.0947    0.5830 C   0  0  0  0  0  0  0  0  0  0  0  0
   -0.3282    1.1943    0.4128 C   0  0  0  0  0  0  0  0  0  0  0  0
   -1.5714   -0.7990    0.0769 N   0  0  0  0  0  0  0  0  0  0  0  0
   -2.6249   -0.2555   -0.6368 C   0  0  0  0  0  0  0  0  0  0  0  0
   -3.7756   -1.1370   -1.1328 C   0  0  0  0  0  0  0  0  0  0  0  0
   -2.7716    0.9371   -0.9509 O   0  0  0  0  0  0  0  0  0  0  0  0
    3.6876   -0.6718    2.3268 H   0  0  0  0  0  0  0  0  0  0  0  0
    2.6056   -2.0951    2.2686 H   0  0  0  0  0  0  0  0  0  0  0  0
    2.4166   -0.9668    3.6412 H   0  0  0  0  0  0  0  0  0  0  0  0
    1.9220    0.7773    1.7945 H   0  0  0  0  0  0  0  0  0  0  0  0
   -1.0504    1.7844   -0.1183 H   0  0  0  0  0  0  0  0  0  0  0  0
    0.5604    1.6759    0.8341 H   0  0  0  0  0  0  0  0  0  0  0  0
   -1.6087   -1.8645    0.2601 H   0  0  0  0  0  0  0  0  0  0  0  0
   -4.6699   -0.9765   -0.5267 H   0  0  0  0  0  0  0  0  0  0  0  0
   -3.3815   -2.1604   -1.1037 H   0  0  0  0  0  0  0  0  0  0  0  0
   -3.9150   -0.8632   -2.2121 H   0  0  0  0  0  0  0  0  0  0  0  0
  1  2  1  0
  1 11  1  0
  1 12  1  0
  1 13  1  0
  2  3  1  0
  2 14  1  0
  3  4  2  0
  3  5  1  0
  5  6  2  3
  5  7  1  0
  6 15  1  0
  6 16  1  0
  7  8  1  0
  7 17  1  0
  8  9  1  0
  8 10  2  0
  9 18  1  0
  9 19  1  0
  9 20  1  0
M  END

> <RosettaParamsInstructions>
M  ROOT 7
M  POLY_N_BB 7
M  POLY_CA_BB 5
M  POLY_C_BB 3
M  POLY_O_BB 4
M  POLY_IGNORE 1 10 9 14 11 12 13 18 19 20
M  POLY_UPPER 2
M  POLY_LOWER 8
M  POLY_CHG 0
M  POLY_PROPERTIES PROTEIN POLYMER ALPHA_AA ALIPHATIC
M  END

$$$$
DHA_new
     RDKit          3D

 20 19  0  0  0  0  0  0  0  0999 V2000
    2.6702   -1.0758    2.5884 C   0  0  0  0  0  0  0  0  0  0  0  0
    1.7056   -0.2423    1.8496 N   0  0  0  0  0  0  0  0  0  0  0  0
    0.5686   -0.8291    1.3159 C   0  0  0  0  0  0  0  0  0  0  0  0
    0.3818   -2.0657    1.4731 O   0  0  0  0  0  0  0  0  0  0  0  0
   -0.4461   -0.0857    0.5674 C   0  0  0  0  0  0  0  0  0  0  0  0
   -0.2873    1.1933    0.3849 C   0  0  0  0  0  0  0  0  0  0  0  0
   -1.5843   -0.7482    0.0493 N   0  0  0  0  0  0  0  0  0  0  0  0
   -2.6462   -0.2175   -0.6809 C   0  0  0  0  0  0  0  0  0  0  0  0
   -3.7634   -1.1549   -1.1277 C   0  0  0  0  0  0  0  0  0  0  0  0
   -2.7683    0.9802   -1.0090 O   0  0  0  0  0  0  0  0  0  0  0  0
    3.6363   -1.0048    2.0597 H   0  0  0  0  0  0  0  0  0  0  0  0
    2.3660   -2.1217    2.6263 H   0  0  0  0  0  0  0  0  0  0  0  0
    2.7527   -0.6164    3.5937 H   0  0  0  0  0  0  0  0  0  0  0  0
    1.9217    0.7565    1.7605 H   0  0  0  0  0  0  0  0  0  0  0  0
   -0.9833    1.7833   -0.1458 H   0  0  0  0  0  0  0  0  0  0  0  0
    0.5970    1.7121    0.7865 H   0  0  0  0  0  0  0  0  0  0  0  0
   -1.6041   -1.7985    0.2634 H   0  0  0  0  0  0  0  0  0  0  0  0
   -3.3891   -2.1901   -1.0899 H   0  0  0  0  0  0  0  0  0  0  0  0
   -4.5993   -1.0753   -0.4108 H   0  0  0  0  0  0  0  0  0  0  0  0
   -4.1352   -0.8519   -2.1139 H   0  0  0  0  0  0  0  0  0  0  0  0
  1  2  1  0
  1 11  1  0
  1 12  1  0
  1 13  1  0
  2  3  1  0
  2 14  1  0
  3  4  2  0
  3  5  1  0
  5  6  2  3
  5  7  1  0
  6 15  1  0
  6 16  1  0
  7  8  1  0
  7 17  1  0
  8  9  1  0
  8 10  2  0
  9 18  1  0
  9 19  1  0
  9 20  1  0
M  END

> <RosettaParamsInstructions>
M  ROOT 7
M  POLY_N_BB 7
M  POLY_CA_BB 5
M  POLY_C_BB 3
M  POLY_O_BB 4
M  POLY_IGNORE 1 10 9 14 11 12 13 18 19 20
M  POLY_UPPER 2
M  POLY_LOWER 8
M  POLY_CHG 0
M  POLY_PROPERTIES PROTEIN POLYMER ALPHA_AA ALIPHATIC
M  END

$$$$
DHA_new
     RDKit          3D

 20 19  0  0  0  0  0  0  0  0999 V2000
    2.6858   -1.0400    2.5824 C   0  0  0  0  0  0  0  0  0  0  0  0
    1.6920   -0.2243    1.9191 N   0  0  0  0  0  0  0  0  0  0  0  0
    0.5792   -0.7902    1.3004 C   0  0  0  0  0  0  0  0  0  0  0  0
    0.4747   -2.0663    1.3449 O   0  0  0  0  0  0  0  0  0  0  0  0
   -0.4929   -0.0693    0.5981 C   0  0  0  0  0  0  0  0  0  0  0  0
   -0.3966    1.2368    0.5461 C   0  0  0  0  0  0  0  0  0  0  0  0
   -1.5597   -0.7973    0.0205 N   0  0  0  0  0  0  0  0  0  0  0  0
   -2.6304   -0.2347   -0.6676 C   0  0  0  0  0  0  0  0  0  0  0  0
   -3.7026   -1.1549   -1.2322 C   0  0  0  0  0  0  0  0  0  0  0  0
   -2.8606    0.9736   -0.9068 O   0  0  0  0  0  0  0  0  0  0  0  0
    2.4110   -1.2480    3.6534 H   0  0  0  0  0  0  0  0  0  0  0  0
    3.6766   -0.5589    2.5203 H   0  0  0  0  0  0  0  0  0  0  0  0
    2.7672   -2.0340    2.0921 H   0  0  0  0  0  0  0  0  0  0  0  0
    1.8513    0.7918    1.9291 H   0  0  0  0  0  0  0  0  0  0  0  0
    0.4583    1.7709    1.0131 H   0  0  0  0  0  0  0  0  0  0  0  0
   -1.1401    1.8167    0.0524 H   0  0  0  0  0  0  0  0  0  0  0  0
   -1.5576   -1.8642    0.1114 H   0  0  0  0  0  0  0  0  0  0  0  0
   -4.6992   -0.7777   -0.9994 H   0  0  0  0  0  0  0  0  0  0  0  0
   -3.5866   -2.1537   -0.8062 H   0  0  0  0  0  0  0  0  0  0  0  0
   -3.5762   -1.2285   -2.3300 H   0  0  0  0  0  0  0  0  0  0  0  0
  1  2  1  0
  1 11  1  0
  1 12  1  0
  1 13  1  0
  2  3  1  0
  2 14  1  0
  3  4  2  0
  3  5  1  0
  5  6  2  3
  5  7  1  0
  6 15  1  0
  6 16  1  0
  7  8  1  0
  7 17  1  0
  8  9  1  0
  8 10  2  0
  9 18  1  0
  9 19  1  0
  9 20  1  0
M  END

> <RosettaParamsInstructions>
M  ROOT 7
M  POLY_N_BB 7
M  POLY_CA_BB 5
M  POLY_C_BB 3
M  POLY_O_BB 4
M  POLY_IGNORE 1 10 9 14 11 12 13 18 19 20
M  POLY_UPPER 2
M  POLY_LOWER 8
M  POLY_CHG 0
M  POLY_PROPERTIES PROTEIN POLYMER ALPHA_AA ALIPHATIC
M  END

$$$$
DHA_new
     RDKit          3D

 20 19  0  0  0  0  0  0  0  0999 V2000
    2.7103   -1.0599    2.5105 C   0  0  0  0  0  0  0  0  0  0  0  0
    1.6902   -0.2258    1.8578 N   0  0  0  0  0  0  0  0  0  0  0  0
    0.5720   -0.8277    1.2691 C   0  0  0  0  0  0  0  0  0  0  0  0
    0.4565   -2.0785    1.3075 O   0  0  0  0  0  0  0  0  0  0  0  0
   -0.4632   -0.0611    0.6134 C   0  0  0  0  0  0  0  0  0  0  0  0
   -0.3726    1.2362    0.5568 C   0  0  0  0  0  0  0  0  0  0  0  0
   -1.5563   -0.7546    0.0465 N   0  0  0  0  0  0  0  0  0  0  0  0
   -2.6645   -0.2322   -0.6305 C   0  0  0  0  0  0  0  0  0  0  0  0
   -3.7234   -1.1537   -1.1588 C   0  0  0  0  0  0  0  0  0  0  0  0
   -2.8516    0.9786   -0.8386 O   0  0  0  0  0  0  0  0  0  0  0  0
    2.4217   -1.1567    3.5610 H   0  0  0  0  0  0  0  0  0  0  0  0
    2.6515   -2.0648    2.0359 H   0  0  0  0  0  0  0  0  0  0  0  0
    3.7076   -0.6335    2.3351 H   0  0  0  0  0  0  0  0  0  0  0  0
    1.8920    0.7844    1.8887 H   0  0  0  0  0  0  0  0  0  0  0  0
    0.4744    1.7355    0.9992 H   0  0  0  0  0  0  0  0  0  0  0  0
   -1.0868    1.8858    0.0944 H   0  0  0  0  0  0  0  0  0  0  0  0
   -1.5598   -1.8306    0.1344 H   0  0  0  0  0  0  0  0  0  0  0  0
   -3.7375   -2.0414   -0.4704 H   0  0  0  0  0  0  0  0  0  0  0  0
   -4.7068   -0.6537   -1.2001 H   0  0  0  0  0  0  0  0  0  0  0  0
   -3.4602   -1.4986   -2.1709 H   0  0  0  0  0  0  0  0  0  0  0  0
  1  2  1  0
  1 11  1  0
  1 12  1  0
  1 13  1  0
  2  3  1  0
  2 14  1  0
  3  4  2  0
  3  5  1  0
  5  6  2  3
  5  7  1  0
  6 15  1  0
  6 16  1  0
  7  8  1  0
  7 17  1  0
  8  9  1  0
  8 10  2  0
  9 18  1  0
  9 19  1  0
  9 20  1  0
M  END

> <RosettaParamsInstructions>
M  ROOT 7
M  POLY_N_BB 7
M  POLY_CA_BB 5
M  POLY_C_BB 3
M  POLY_O_BB 4
M  POLY_IGNORE 1 10 9 14 11 12 13 18 19 20
M  POLY_UPPER 2
M  POLY_LOWER 8
M  POLY_CHG 0
M  POLY_PROPERTIES PROTEIN POLYMER ALPHA_AA ALIPHATIC
M  END

$$$$
DHA_new
     RDKit          3D

 20 19  0  0  0  0  0  0  0  0999 V2000
    2.6340   -1.0524    2.6861 C   0  0  0  0  0  0  0  0  0  0  0  0
    1.6933   -0.2802    1.8926 N   0  0  0  0  0  0  0  0  0  0  0  0
    0.5273   -0.8068    1.3447 C   0  0  0  0  0  0  0  0  0  0  0  0
    0.3014   -2.0401    1.5708 O   0  0  0  0  0  0  0  0  0  0  0  0
   -0.4507   -0.0563    0.5351 C   0  0  0  0  0  0  0  0  0  0  0  0
   -0.2388    1.1985    0.2942 C   0  0  0  0  0  0  0  0  0  0  0  0
   -1.5890   -0.7299    0.0471 N   0  0  0  0  0  0  0  0  0  0  0  0
   -2.6381   -0.2378   -0.7294 C   0  0  0  0  0  0  0  0  0  0  0  0
   -3.7629   -1.1573   -1.1371 C   0  0  0  0  0  0  0  0  0  0  0  0
   -2.7152    0.9291   -1.1186 O   0  0  0  0  0  0  0  0  0  0  0  0
    2.4604   -2.1416    2.5908 H   0  0  0  0  0  0  0  0  0  0  0  0
    3.6542   -0.8064    2.3249 H   0  0  0  0  0  0  0  0  0  0  0  0
    2.5444   -0.7671    3.7521 H   0  0  0  0  0  0  0  0  0  0  0  0
    1.9439    0.7133    1.7519 H   0  0  0  0  0  0  0  0  0  0  0  0
    0.6396    1.6888    0.6795 H   0  0  0  0  0  0  0  0  0  0  0  0
   -0.8967    1.8045   -0.2800 H   0  0  0  0  0  0  0  0  0  0  0  0
   -1.6874   -1.7826    0.2970 H   0  0  0  0  0  0  0  0  0  0  0  0
   -3.7396   -1.1705   -2.2510 H   0  0  0  0  0  0  0  0  0  0  0  0
   -3.5750   -2.1871   -0.7811 H   0  0  0  0  0  0  0  0  0  0  0  0
   -4.7115   -0.7702   -0.7286 H   0  0  0  0  0  0  0  0  0  0  0  0
  1  2  1  0
  1 11  1  0
  1 12  1  0
  1 13  1  0
  2  3  1  0
  2 14  1  0
  3  4  2  0
  3  5  1  0
  5  6  2  3
  5  7  1  0
  6 15  1  0
  6 16  1  0
  7  8  1  0
  7 17  1  0
  8  9  1  0
  8 10  2  0
  9 18  1  0
  9 19  1  0
  9 20  1  0
M  END

> <RosettaParamsInstructions>
M  ROOT 7
M  POLY_N_BB 7
M  POLY_CA_BB 5
M  POLY_C_BB 3
M  POLY_O_BB 4
M  POLY_IGNORE 1 10 9 14 11 12 13 18 19 20
M  POLY_UPPER 2
M  POLY_LOWER 8
M  POLY_CHG 0
M  POLY_PROPERTIES PROTEIN POLYMER ALPHA_AA ALIPHATIC
M  END

$$$$
DHA_new
     RDKit          3D

 20 19  0  0  0  0  0  0  0  0999 V2000
    2.6652   -1.0861    2.5713 C   0  0  0  0  0  0  0  0  0  0  0  0
    1.7082   -0.1931    1.8658 N   0  0  0  0  0  0  0  0  0  0  0  0
    0.5747   -0.8260    1.3121 C   0  0  0  0  0  0  0  0  0  0  0  0
    0.4029   -2.0818    1.4216 O   0  0  0  0  0  0  0  0  0  0  0  0
   -0.4339   -0.0702    0.5995 C   0  0  0  0  0  0  0  0  0  0  0  0
   -0.2997    1.2249    0.4615 C   0  0  0  0  0  0  0  0  0  0  0  0
   -1.5387   -0.7698    0.0736 N   0  0  0  0  0  0  0  0  0  0  0  0
   -2.6336   -0.2592   -0.6484 C   0  0  0  0  0  0  0  0  0  0  0  0
   -3.7352   -1.1822   -1.1352 C   0  0  0  0  0  0  0  0  0  0  0  0
   -2.8276    0.9409   -0.9613 O   0  0  0  0  0  0  0  0  0  0  0  0
    3.2912   -1.5151    1.7773 H   0  0  0  0  0  0  0  0  0  0  0  0
    3.2311   -0.4625    3.2698 H   0  0  0  0  0  0  0  0  0  0  0  0
    2.0511   -1.8134    3.1198 H   0  0  0  0  0  0  0  0  0  0  0  0
    1.9174    0.8162    1.8189 H   0  0  0  0  0  0  0  0  0  0  0  0
    0.5681    1.7295    0.8820 H   0  0  0  0  0  0  0  0  0  0  0  0
   -1.0240    1.8593   -0.0656 H   0  0  0  0  0  0  0  0  0  0  0  0
   -1.5678   -1.8257    0.2328 H   0  0  0  0  0  0  0  0  0  0  0  0
   -3.4160   -2.2370   -1.0138 H   0  0  0  0  0  0  0  0  0  0  0  0
   -3.8546   -0.9538   -2.2188 H   0  0  0  0  0  0  0  0  0  0  0  0
   -4.6851   -0.9472   -0.6221 H   0  0  0  0  0  0  0  0  0  0  0  0
  1  2  1  0
  1 11  1  0
  1 12  1  0
  1 13  1  0
  2  3  1  0
  2 14  1  0
  3  4  2  0
  3  5  1  0
  5  6  2  3
  5  7  1  0
  6 15  1  0
  6 16  1  0
  7  8  1  0
  7 17  1  0
  8  9  1  0
  8 10  2  0
  9 18  1  0
  9 19  1  0
  9 20  1  0
M  END

> <RosettaParamsInstructions>
M  ROOT 7
M  POLY_N_BB 7
M  POLY_CA_BB 5
M  POLY_C_BB 3
M  POLY_O_BB 4
M  POLY_IGNORE 1 10 9 14 11 12 13 18 19 20
M  POLY_UPPER 2
M  POLY_LOWER 8
M  POLY_CHG 0
M  POLY_PROPERTIES PROTEIN POLYMER ALPHA_AA ALIPHATIC
M  END

$$$$
DHA_new
     RDKit          3D

 20 19  0  0  0  0  0  0  0  0999 V2000
    2.6258   -1.0313    2.6643 C   0  0  0  0  0  0  0  0  0  0  0  0
    1.6731   -0.2375    1.8699 N   0  0  0  0  0  0  0  0  0  0  0  0
    0.5429   -0.8473    1.3518 C   0  0  0  0  0  0  0  0  0  0  0  0
    0.3379   -2.0884    1.5671 O   0  0  0  0  0  0  0  0  0  0  0  0
   -0.4421   -0.0898    0.5478 C   0  0  0  0  0  0  0  0  0  0  0  0
   -0.2233    1.1785    0.3334 C   0  0  0  0  0  0  0  0  0  0  0  0
   -1.5862   -0.7897    0.0460 N   0  0  0  0  0  0  0  0  0  0  0  0
   -2.6271   -0.2660   -0.7280 C   0  0  0  0  0  0  0  0  0  0  0  0
   -3.7705   -1.1470   -1.1798 C   0  0  0  0  0  0  0  0  0  0  0  0
   -2.7040    0.9162   -1.0979 O   0  0  0  0  0  0  0  0  0  0  0  0
    2.4211   -0.8083    3.7308 H   0  0  0  0  0  0  0  0  0  0  0  0
    2.4989   -2.0786    2.3915 H   0  0  0  0  0  0  0  0  0  0  0  0
    3.6440   -0.6877    2.4418 H   0  0  0  0  0  0  0  0  0  0  0  0
    1.9187    0.7399    1.7515 H   0  0  0  0  0  0  0  0  0  0  0  0
    0.6610    1.6938    0.7283 H   0  0  0  0  0  0  0  0  0  0  0  0
   -0.9064    1.7647   -0.2408 H   0  0  0  0  0  0  0  0  0  0  0  0
   -1.6366   -1.8366    0.3018 H   0  0  0  0  0  0  0  0  0  0  0  0
   -3.5249   -1.4793   -2.1939 H   0  0  0  0  0  0  0  0  0  0  0  0
   -3.8103   -1.9857   -0.4535 H   0  0  0  0  0  0  0  0  0  0  0  0
   -4.6984   -0.5721   -1.0913 H   0  0  0  0  0  0  0  0  0  0  0  0
  1  2  1  0
  1 11  1  0
  1 12  1  0
  1 13  1  0
  2  3  1  0
  2 14  1  0
  3  4  2  0
  3  5  1  0
  5  6  2  3
  5  7  1  0
  6 15  1  0
  6 16  1  0
  7  8  1  0
  7 17  1  0
  8  9  1  0
  8 10  2  0
  9 18  1  0
  9 19  1  0
  9 20  1  0
M  END

> <RosettaParamsInstructions>
M  ROOT 7
M  POLY_N_BB 7
M  POLY_CA_BB 5
M  POLY_C_BB 3
M  POLY_O_BB 4
M  POLY_IGNORE 1 10 9 14 11 12 13 18 19 20
M  POLY_UPPER 2
M  POLY_LOWER 8
M  POLY_CHG 0
M  POLY_PROPERTIES PROTEIN POLYMER ALPHA_AA ALIPHATIC
M  END

$$$$
DHA_new
     RDKit          3D

 20 19  0  0  0  0  0  0  0  0999 V2000
    2.6588   -1.0874    2.5844 C   0  0  0  0  0  0  0  0  0  0  0  0
    1.6997   -0.2097    1.8741 N   0  0  0  0  0  0  0  0  0  0  0  0
    0.5744   -0.8251    1.3158 C   0  0  0  0  0  0  0  0  0  0  0  0
    0.4338   -2.0668    1.4408 O   0  0  0  0  0  0  0  0  0  0  0  0
   -0.4677   -0.0725    0.5776 C   0  0  0  0  0  0  0  0  0  0  0  0
   -0.3445    1.2144    0.4349 C   0  0  0  0  0  0  0  0  0  0  0  0
   -1.5703   -0.7839    0.0487 N   0  0  0  0  0  0  0  0  0  0  0  0
   -2.6372   -0.2324   -0.6705 C   0  0  0  0  0  0  0  0  0  0  0  0
   -3.7203   -1.1743   -1.1495 C   0  0  0  0  0  0  0  0  0  0  0  0
   -2.7916    0.9659   -0.9616 O   0  0  0  0  0  0  0  0  0  0  0  0
    2.0646   -1.8399    3.1053 H   0  0  0  0  0  0  0  0  0  0  0  0
    3.2874   -1.5513    1.8018 H   0  0  0  0  0  0  0  0  0  0  0  0
    3.2627   -0.4549    3.2680 H   0  0  0  0  0  0  0  0  0  0  0  0
    1.9152    0.8226    1.8281 H   0  0  0  0  0  0  0  0  0  0  0  0
    0.5265    1.7402    0.8587 H   0  0  0  0  0  0  0  0  0  0  0  0
   -1.0183    1.8693   -0.0706 H   0  0  0  0  0  0  0  0  0  0  0  0
   -1.6027   -1.8478    0.2075 H   0  0  0  0  0  0  0  0  0  0  0  0
   -4.2039   -0.7741   -2.0410 H   0  0  0  0  0  0  0  0  0  0  0  0
   -4.4421   -1.2275   -0.3148 H   0  0  0  0  0  0  0  0  0  0  0  0
   -3.2310   -2.1170   -1.3971 H   0  0  0  0  0  0  0  0  0  0  0  0
  1  2  1  0
  1 11  1  0
  1 12  1  0
  1 13  1  0
  2  3  1  0
  2 14  1  0
  3  4  2  0
  3  5  1  0
  5  6  2  3
  5  7  1  0
  6 15  1  0
  6 16  1  0
  7  8  1  0
  7 17  1  0
  8  9  1  0
  8 10  2  0
  9 18  1  0
  9 19  1  0
  9 20  1  0
M  END

> <RosettaParamsInstructions>
M  ROOT 7
M  POLY_N_BB 7
M  POLY_CA_BB 5
M  POLY_C_BB 3
M  POLY_O_BB 4
M  POLY_IGNORE 1 10 9 14 11 12 13 18 19 20
M  POLY_UPPER 2
M  POLY_LOWER 8
M  POLY_CHG 0
M  POLY_PROPERTIES PROTEIN POLYMER ALPHA_AA ALIPHATIC
M  END

$$$$
DHA_new
     RDKit          3D

 20 19  0  0  0  0  0  0  0  0999 V2000
    2.6864   -1.0845    2.5113 C   0  0  0  0  0  0  0  0  0  0  0  0
    1.7073   -0.2227    1.8213 N   0  0  0  0  0  0  0  0  0  0  0  0
    0.5729   -0.8388    1.2897 C   0  0  0  0  0  0  0  0  0  0  0  0
    0.4139   -2.1016    1.4103 O   0  0  0  0  0  0  0  0  0  0  0  0
   -0.4790   -0.0755    0.5752 C   0  0  0  0  0  0  0  0  0  0  0  0
   -0.3396    1.2270    0.4371 C   0  0  0  0  0  0  0  0  0  0  0  0
   -1.6047   -0.7632    0.0604 N   0  0  0  0  0  0  0  0  0  0  0  0
   -2.6743   -0.2178   -0.6278 C   0  0  0  0  0  0  0  0  0  0  0  0
   -3.7802   -1.1486   -1.0913 C   0  0  0  0  0  0  0  0  0  0  0  0
   -2.8073    0.9762   -0.9002 O   0  0  0  0  0  0  0  0  0  0  0  0
    2.6613   -2.0720    2.0353 H   0  0  0  0  0  0  0  0  0  0  0  0
    2.4938   -1.1100    3.5942 H   0  0  0  0  0  0  0  0  0  0  0  0
    3.6954   -0.6634    2.3460 H   0  0  0  0  0  0  0  0  0  0  0  0
    1.9381    0.7832    1.7834 H   0  0  0  0  0  0  0  0  0  0  0  0
   -1.0238    1.8867   -0.0547 H   0  0  0  0  0  0  0  0  0  0  0  0
    0.5523    1.7109    0.8551 H   0  0  0  0  0  0  0  0  0  0  0  0
   -1.6043   -1.8099    0.2343 H   0  0  0  0  0  0  0  0  0  0  0  0
   -3.8895   -1.9033   -0.2892 H   0  0  0  0  0  0  0  0  0  0  0  0
   -4.7175   -0.5818   -1.2588 H   0  0  0  0  0  0  0  0  0  0  0  0
   -3.4077   -1.6434   -1.9907 H   0  0  0  0  0  0  0  0  0  0  0  0
  1  2  1  0
  1 11  1  0
  1 12  1  0
  1 13  1  0
  2  3  1  0
  2 14  1  0
  3  4  2  0
  3  5  1  0
  5  6  2  3
  5  7  1  0
  6 15  1  0
  6 16  1  0
  7  8  1  0
  7 17  1  0
  8  9  1  0
  8 10  2  0
  9 18  1  0
  9 19  1  0
  9 20  1  0
M  END

> <RosettaParamsInstructions>
M  ROOT 7
M  POLY_N_BB 7
M  POLY_CA_BB 5
M  POLY_C_BB 3
M  POLY_O_BB 4
M  POLY_IGNORE 1 10 9 14 11 12 13 18 19 20
M  POLY_UPPER 2
M  POLY_LOWER 8
M  POLY_CHG 0
M  POLY_PROPERTIES PROTEIN POLYMER ALPHA_AA ALIPHATIC
M  END

$$$$
DHA_new
     RDKit          3D

 20 19  0  0  0  0  0  0  0  0999 V2000
    2.7524   -1.0236    2.5101 C   0  0  0  0  0  0  0  0  0  0  0  0
    1.6913   -0.2616    1.8576 N   0  0  0  0  0  0  0  0  0  0  0  0
    0.5946   -0.8842    1.2761 C   0  0  0  0  0  0  0  0  0  0  0  0
    0.4933   -2.1577    1.3024 O   0  0  0  0  0  0  0  0  0  0  0  0
   -0.4797   -0.0872    0.6138 C   0  0  0  0  0  0  0  0  0  0  0  0
   -0.4002    1.2134    0.5733 C   0  0  0  0  0  0  0  0  0  0  0  0
   -1.5643   -0.7824    0.0439 N   0  0  0  0  0  0  0  0  0  0  0  0
   -2.6585   -0.2487   -0.6124 C   0  0  0  0  0  0  0  0  0  0  0  0
   -3.7576   -1.1362   -1.1780 C   0  0  0  0  0  0  0  0  0  0  0  0
   -2.8457    0.9594   -0.7982 O   0  0  0  0  0  0  0  0  0  0  0  0
    2.9431   -1.9242    1.8703 H   0  0  0  0  0  0  0  0  0  0  0  0
    3.6858   -0.4497    2.6087 H   0  0  0  0  0  0  0  0  0  0  0  0
    2.3971   -1.3242    3.5183 H   0  0  0  0  0  0  0  0  0  0  0  0
    1.8173    0.7573    1.8620 H   0  0  0  0  0  0  0  0  0  0  0  0
    0.4451    1.7723    1.0163 H   0  0  0  0  0  0  0  0  0  0  0  0
   -1.1555    1.8047    0.1056 H   0  0  0  0  0  0  0  0  0  0  0  0
   -1.5541   -1.8683    0.1211 H   0  0  0  0  0  0  0  0  0  0  0  0
   -4.6081   -1.1744   -0.4701 H   0  0  0  0  0  0  0  0  0  0  0  0
   -4.1266   -0.7139   -2.1410 H   0  0  0  0  0  0  0  0  0  0  0  0
   -3.2760   -2.1231   -1.3390 H   0  0  0  0  0  0  0  0  0  0  0  0
  1  2  1  0
  1 11  1  0
  1 12  1  0
  1 13  1  0
  2  3  1  0
  2 14  1  0
  3  4  2  0
  3  5  1  0
  5  6  2  3
  5  7  1  0
  6 15  1  0
  6 16  1  0
  7  8  1  0
  7 17  1  0
  8  9  1  0
  8 10  2  0
  9 18  1  0
  9 19  1  0
  9 20  1  0
M  END

> <RosettaParamsInstructions>
M  ROOT 7
M  POLY_N_BB 7
M  POLY_CA_BB 5
M  POLY_C_BB 3
M  POLY_O_BB 4
M  POLY_IGNORE 1 10 9 14 11 12 13 18 19 20
M  POLY_UPPER 2
M  POLY_LOWER 8
M  POLY_CHG 0
M  POLY_PROPERTIES PROTEIN POLYMER ALPHA_AA ALIPHATIC
M  END

$$$$
DHA_new
     RDKit          3D

 20 19  0  0  0  0  0  0  0  0999 V2000
    2.6848   -1.0853    2.5763 C   0  0  0  0  0  0  0  0  0  0  0  0
    1.7012   -0.2402    1.8674 N   0  0  0  0  0  0  0  0  0  0  0  0
    0.5569   -0.8113    1.3019 C   0  0  0  0  0  0  0  0  0  0  0  0
    0.3817   -2.0609    1.4091 O   0  0  0  0  0  0  0  0  0  0  0  0
   -0.4443   -0.0299    0.5934 C   0  0  0  0  0  0  0  0  0  0  0  0
   -0.3212    1.2729    0.4472 C   0  0  0  0  0  0  0  0  0  0  0  0
   -1.5693   -0.7502    0.0640 N   0  0  0  0  0  0  0  0  0  0  0  0
   -2.6467   -0.2320   -0.6446 C   0  0  0  0  0  0  0  0  0  0  0  0
   -3.7233   -1.1748   -1.1090 C   0  0  0  0  0  0  0  0  0  0  0  0
   -2.8538    0.9672   -0.9642 O   0  0  0  0  0  0  0  0  0  0  0  0
    3.6962   -0.7323    2.3263 H   0  0  0  0  0  0  0  0  0  0  0  0
    2.5860   -2.1160    2.1659 H   0  0  0  0  0  0  0  0  0  0  0  0
    2.4586   -1.0491    3.6655 H   0  0  0  0  0  0  0  0  0  0  0  0
    1.8955    0.7773    1.8098 H   0  0  0  0  0  0  0  0  0  0  0  0
    0.5456    1.7760    0.8639 H   0  0  0  0  0  0  0  0  0  0  0  0
   -1.0480    1.8761   -0.0730 H   0  0  0  0  0  0  0  0  0  0  0  0
   -1.5766   -1.8074    0.2361 H   0  0  0  0  0  0  0  0  0  0  0  0
   -3.3637   -2.2274   -1.0985 H   0  0  0  0  0  0  0  0  0  0  0  0
   -4.6409   -1.0810   -0.5265 H   0  0  0  0  0  0  0  0  0  0  0  0
   -3.9251   -0.9241   -2.1702 H   0  0  0  0  0  0  0  0  0  0  0  0
  1  2  1  0
  1 11  1  0
  1 12  1  0
  1 13  1  0
  2  3  1  0
  2 14  1  0
  3  4  2  0
  3  5  1  0
  5  6  2  3
  5  7  1  0
  6 15  1  0
  6 16  1  0
  7  8  1  0
  7 17  1  0
  8  9  1  0
  8 10  2  0
  9 18  1  0
  9 19  1  0
  9 20  1  0
M  END

> <RosettaParamsInstructions>
M  ROOT 7
M  POLY_N_BB 7
M  POLY_CA_BB 5
M  POLY_C_BB 3
M  POLY_O_BB 4
M  POLY_IGNORE 1 10 9 14 11 12 13 18 19 20
M  POLY_UPPER 2
M  POLY_LOWER 8
M  POLY_CHG 0
M  POLY_PROPERTIES PROTEIN POLYMER ALPHA_AA ALIPHATIC
M  END

$$$$
DHA_new
     RDKit          3D

 20 19  0  0  0  0  0  0  0  0999 V2000
    2.6766   -1.0559    2.5664 C   0  0  0  0  0  0  0  0  0  0  0  0
    1.6740   -0.2589    1.8565 N   0  0  0  0  0  0  0  0  0  0  0  0
    0.5476   -0.8850    1.3003 C   0  0  0  0  0  0  0  0  0  0  0  0
    0.3909   -2.1472    1.4093 O   0  0  0  0  0  0  0  0  0  0  0  0
   -0.4613   -0.0803    0.5855 C   0  0  0  0  0  0  0  0  0  0  0  0
   -0.3253    1.2090    0.4602 C   0  0  0  0  0  0  0  0  0  0  0  0
   -1.5710   -0.7657    0.0484 N   0  0  0  0  0  0  0  0  0  0  0  0
   -2.6393   -0.2245   -0.6591 C   0  0  0  0  0  0  0  0  0  0  0  0
   -3.7369   -1.1625   -1.1491 C   0  0  0  0  0  0  0  0  0  0  0  0
   -2.8384    0.9598   -0.9628 O   0  0  0  0  0  0  0  0  0  0  0  0
    3.5733   -1.1820    1.9252 H   0  0  0  0  0  0  0  0  0  0  0  0
    3.0185   -0.4917    3.4620 H   0  0  0  0  0  0  0  0  0  0  0  0
    2.2341   -2.0014    2.8963 H   0  0  0  0  0  0  0  0  0  0  0  0
    1.8536    0.7487    1.8012 H   0  0  0  0  0  0  0  0  0  0  0  0
    0.5222    1.7598    0.8661 H   0  0  0  0  0  0  0  0  0  0  0  0
   -1.0372    1.8148   -0.0502 H   0  0  0  0  0  0  0  0  0  0  0  0
   -1.5872   -1.8257    0.2071 H   0  0  0  0  0  0  0  0  0  0  0  0
   -3.6243   -2.1526   -0.6489 H   0  0  0  0  0  0  0  0  0  0  0  0
   -3.5807   -1.2188   -2.2472 H   0  0  0  0  0  0  0  0  0  0  0  0
   -4.6957   -0.6920   -0.9263 H   0  0  0  0  0  0  0  0  0  0  0  0
  1  2  1  0
  1 11  1  0
  1 12  1  0
  1 13  1  0
  2  3  1  0
  2 14  1  0
  3  4  2  0
  3  5  1  0
  5  6  2  3
  5  7  1  0
  6 15  1  0
  6 16  1  0
  7  8  1  0
  7 17  1  0
  8  9  1  0
  8 10  2  0
  9 18  1  0
  9 19  1  0
  9 20  1  0
M  END

> <RosettaParamsInstructions>
M  ROOT 7
M  POLY_N_BB 7
M  POLY_CA_BB 5
M  POLY_C_BB 3
M  POLY_O_BB 4
M  POLY_IGNORE 1 10 9 14 11 12 13 18 19 20
M  POLY_UPPER 2
M  POLY_LOWER 8
M  POLY_CHG 0
M  POLY_PROPERTIES PROTEIN POLYMER ALPHA_AA ALIPHATIC
M  END

$$$$
DHA_new
     RDKit          3D

 20 19  0  0  0  0  0  0  0  0999 V2000
    2.6161   -1.0529    2.6602 C   0  0  0  0  0  0  0  0  0  0  0  0
    1.6858   -0.2128    1.8710 N   0  0  0  0  0  0  0  0  0  0  0  0
    0.5551   -0.8454    1.3633 C   0  0  0  0  0  0  0  0  0  0  0  0
    0.3546   -2.0847    1.5807 O   0  0  0  0  0  0  0  0  0  0  0  0
   -0.4395   -0.0912    0.5590 C   0  0  0  0  0  0  0  0  0  0  0  0
   -0.2410    1.1819    0.3310 C   0  0  0  0  0  0  0  0  0  0  0  0
   -1.5714   -0.7818    0.0663 N   0  0  0  0  0  0  0  0  0  0  0  0
   -2.6080   -0.2581   -0.7003 C   0  0  0  0  0  0  0  0  0  0  0  0
   -3.7574   -1.1558   -1.1470 C   0  0  0  0  0  0  0  0  0  0  0  0
   -2.6647    0.9269   -1.0577 O   0  0  0  0  0  0  0  0  0  0  0  0
    2.0350   -1.8115    3.1812 H   0  0  0  0  0  0  0  0  0  0  0  0
    3.3162   -1.4721    1.9060 H   0  0  0  0  0  0  0  0  0  0  0  0
    3.0992   -0.3765    3.3781 H   0  0  0  0  0  0  0  0  0  0  0  0
    1.9049    0.7840    1.7307 H   0  0  0  0  0  0  0  0  0  0  0  0
    0.6358    1.6958    0.7185 H   0  0  0  0  0  0  0  0  0  0  0  0
   -0.9081    1.7780   -0.2331 H   0  0  0  0  0  0  0  0  0  0  0  0
   -1.6012   -1.8158    0.3305 H   0  0  0  0  0  0  0  0  0  0  0  0
   -3.4781   -1.5865   -2.1220 H   0  0  0  0  0  0  0  0  0  0  0  0
   -3.8747   -1.9417   -0.3940 H   0  0  0  0  0  0  0  0  0  0  0  0
   -4.6652   -0.5320   -1.2815 H   0  0  0  0  0  0  0  0  0  0  0  0
  1  2  1  0
  1 11  1  0
  1 12  1  0
  1 13  1  0
  2  3  1  0
  2 14  1  0
  3  4  2  0
  3  5  1  0
  5  6  2  3
  5  7  1  0
  6 15  1  0
  6 16  1  0
  7  8  1  0
  7 17  1  0
  8  9  1  0
  8 10  2  0
  9 18  1  0
  9 19  1  0
  9 20  1  0
M  END

> <RosettaParamsInstructions>
M  ROOT 7
M  POLY_N_BB 7
M  POLY_CA_BB 5
M  POLY_C_BB 3
M  POLY_O_BB 4
M  POLY_IGNORE 1 10 9 14 11 12 13 18 19 20
M  POLY_UPPER 2
M  POLY_LOWER 8
M  POLY_CHG 0
M  POLY_PROPERTIES PROTEIN POLYMER ALPHA_AA ALIPHATIC
M  END

$$$$
DHA_new
     RDKit          3D

 20 19  0  0  0  0  0  0  0  0999 V2000
    2.6330   -1.0530    2.6515 C   0  0  0  0  0  0  0  0  0  0  0  0
    1.6563   -0.2383    1.9108 N   0  0  0  0  0  0  0  0  0  0  0  0
    0.5459   -0.8368    1.3250 C   0  0  0  0  0  0  0  0  0  0  0  0
    0.3835   -2.0855    1.4347 O   0  0  0  0  0  0  0  0  0  0  0  0
   -0.4695   -0.0719    0.5688 C   0  0  0  0  0  0  0  0  0  0  0  0
   -0.3362    1.2216    0.4336 C   0  0  0  0  0  0  0  0  0  0  0  0
   -1.5677   -0.7614    0.0059 N   0  0  0  0  0  0  0  0  0  0  0  0
   -2.6149   -0.2499   -0.7275 C   0  0  0  0  0  0  0  0  0  0  0  0
   -3.6797   -1.2018   -1.2256 C   0  0  0  0  0  0  0  0  0  0  0  0
   -2.7443    0.9445   -1.0085 O   0  0  0  0  0  0  0  0  0  0  0  0
    2.8287   -0.5084    3.6100 H   0  0  0  0  0  0  0  0  0  0  0  0
    3.5843   -1.1310    2.1110 H   0  0  0  0  0  0  0  0  0  0  0  0
    2.1879   -2.0465    2.8487 H   0  0  0  0  0  0  0  0  0  0  0  0
    1.8711    0.7718    1.8736 H   0  0  0  0  0  0  0  0  0  0  0  0
    0.5408    1.7226    0.8913 H   0  0  0  0  0  0  0  0  0  0  0  0
   -1.0227    1.8386   -0.0946 H   0  0  0  0  0  0  0  0  0  0  0  0
   -1.5717   -1.8209    0.1817 H   0  0  0  0  0  0  0  0  0  0  0  0
   -3.7645   -1.0342   -2.3194 H   0  0  0  0  0  0  0  0  0  0  0  0
   -3.4438   -2.2371   -0.9846 H   0  0  0  0  0  0  0  0  0  0  0  0
   -4.6231   -0.8746   -0.7456 H   0  0  0  0  0  0  0  0  0  0  0  0
  1  2  1  0
  1 11  1  0
  1 12  1  0
  1 13  1  0
  2  3  1  0
  2 14  1  0
  3  4  2  0
  3  5  1  0
  5  6  2  3
  5  7  1  0
  6 15  1  0
  6 16  1  0
  7  8  1  0
  7 17  1  0
  8  9  1  0
  8 10  2  0
  9 18  1  0
  9 19  1  0
  9 20  1  0
M  END

> <RosettaParamsInstructions>
M  ROOT 7
M  POLY_N_BB 7
M  POLY_CA_BB 5
M  POLY_C_BB 3
M  POLY_O_BB 4
M  POLY_IGNORE 1 10 9 14 11 12 13 18 19 20
M  POLY_UPPER 2
M  POLY_LOWER 8
M  POLY_CHG 0
M  POLY_PROPERTIES PROTEIN POLYMER ALPHA_AA ALIPHATIC
M  END

$$$$
DHA_new
     RDKit          3D

 20 19  0  0  0  0  0  0  0  0999 V2000
    2.6486   -1.0854    2.5997 C   0  0  0  0  0  0  0  0  0  0  0  0
    1.7110   -0.2623    1.8350 N   0  0  0  0  0  0  0  0  0  0  0  0
    0.5394   -0.8250    1.3195 C   0  0  0  0  0  0  0  0  0  0  0  0
    0.3061   -2.0396    1.5218 O   0  0  0  0  0  0  0  0  0  0  0  0
   -0.4372   -0.0403    0.5432 C   0  0  0  0  0  0  0  0  0  0  0  0
   -0.2406    1.2345    0.3033 C   0  0  0  0  0  0  0  0  0  0  0  0
   -1.5808   -0.7453    0.0831 N   0  0  0  0  0  0  0  0  0  0  0  0
   -2.6321   -0.2128   -0.6663 C   0  0  0  0  0  0  0  0  0  0  0  0
   -3.7637   -1.1415   -1.0578 C   0  0  0  0  0  0  0  0  0  0  0  0
   -2.7384    0.9521   -1.0493 O   0  0  0  0  0  0  0  0  0  0  0  0
    3.3487   -1.5812    1.9002 H   0  0  0  0  0  0  0  0  0  0  0  0
    2.0681   -1.8579    3.1468 H   0  0  0  0  0  0  0  0  0  0  0  0
    3.2254   -0.4330    3.2555 H   0  0  0  0  0  0  0  0  0  0  0  0
    1.9321    0.7350    1.6858 H   0  0  0  0  0  0  0  0  0  0  0  0
   -0.9215    1.8301   -0.2514 H   0  0  0  0  0  0  0  0  0  0  0  0
    0.6381    1.7585    0.6618 H   0  0  0  0  0  0  0  0  0  0  0  0
   -1.6590   -1.7788    0.3240 H   0  0  0  0  0  0  0  0  0  0  0  0
   -4.4523   -1.2775   -0.2136 H   0  0  0  0  0  0  0  0  0  0  0  0
   -3.2929   -2.1194   -1.2665 H   0  0  0  0  0  0  0  0  0  0  0  0
   -4.3055   -0.7624   -1.9340 H   0  0  0  0  0  0  0  0  0  0  0  0
  1  2  1  0
  1 11  1  0
  1 12  1  0
  1 13  1  0
  2  3  1  0
  2 14  1  0
  3  4  2  0
  3  5  1  0
  5  6  2  3
  5  7  1  0
  6 15  1  0
  6 16  1  0
  7  8  1  0
  7 17  1  0
  8  9  1  0
  8 10  2  0
  9 18  1  0
  9 19  1  0
  9 20  1  0
M  END

> <RosettaParamsInstructions>
M  ROOT 7
M  POLY_N_BB 7
M  POLY_CA_BB 5
M  POLY_C_BB 3
M  POLY_O_BB 4
M  POLY_IGNORE 1 10 9 14 11 12 13 18 19 20
M  POLY_UPPER 2
M  POLY_LOWER 8
M  POLY_CHG 0
M  POLY_PROPERTIES PROTEIN POLYMER ALPHA_AA ALIPHATIC
M  END

$$$$
DHA_new
     RDKit          3D

 20 19  0  0  0  0  0  0  0  0999 V2000
    2.6976   -1.0739    2.5551 C   0  0  0  0  0  0  0  0  0  0  0  0
    1.6937   -0.2370    1.8645 N   0  0  0  0  0  0  0  0  0  0  0  0
    0.5593   -0.8464    1.2878 C   0  0  0  0  0  0  0  0  0  0  0  0
    0.3985   -2.1103    1.3603 O   0  0  0  0  0  0  0  0  0  0  0  0
   -0.4572   -0.0626    0.5967 C   0  0  0  0  0  0  0  0  0  0  0  0
   -0.3212    1.2342    0.5056 C   0  0  0  0  0  0  0  0  0  0  0  0
   -1.5653   -0.7640    0.0473 N   0  0  0  0  0  0  0  0  0  0  0  0
   -2.6492   -0.2274   -0.6503 C   0  0  0  0  0  0  0  0  0  0  0  0
   -3.7233   -1.1788   -1.1473 C   0  0  0  0  0  0  0  0  0  0  0  0
   -2.8449    0.9798   -0.9217 O   0  0  0  0  0  0  0  0  0  0  0  0
    3.6779   -0.6607    2.2815 H   0  0  0  0  0  0  0  0  0  0  0  0
    2.4983   -0.9917    3.6254 H   0  0  0  0  0  0  0  0  0  0  0  0
    2.5575   -2.1187    2.1977 H   0  0  0  0  0  0  0  0  0  0  0  0
    1.8779    0.7770    1.8382 H   0  0  0  0  0  0  0  0  0  0  0  0
   -1.0548    1.8548   -0.0003 H   0  0  0  0  0  0  0  0  0  0  0  0
    0.5308    1.7952    0.9252 H   0  0  0  0  0  0  0  0  0  0  0  0
   -1.5816   -1.8213    0.1764 H   0  0  0  0  0  0  0  0  0  0  0  0
   -3.4346   -2.2256   -0.9686 H   0  0  0  0  0  0  0  0  0  0  0  0
   -4.6729   -0.9836   -0.6076 H   0  0  0  0  0  0  0  0  0  0  0  0
   -3.7929   -0.9910   -2.2249 H   0  0  0  0  0  0  0  0  0  0  0  0
  1  2  1  0
  1 11  1  0
  1 12  1  0
  1 13  1  0
  2  3  1  0
  2 14  1  0
  3  4  2  0
  3  5  1  0
  5  6  2  3
  5  7  1  0
  6 15  1  0
  6 16  1  0
  7  8  1  0
  7 17  1  0
  8  9  1  0
  8 10  2  0
  9 18  1  0
  9 19  1  0
  9 20  1  0
M  END

> <RosettaParamsInstructions>
M  ROOT 7
M  POLY_N_BB 7
M  POLY_CA_BB 5
M  POLY_C_BB 3
M  POLY_O_BB 4
M  POLY_IGNORE 1 10 9 14 11 12 13 18 19 20
M  POLY_UPPER 2
M  POLY_LOWER 8
M  POLY_CHG 0
M  POLY_PROPERTIES PROTEIN POLYMER ALPHA_AA ALIPHATIC
M  END

$$$$
DHA_new
     RDKit          3D

 20 19  0  0  0  0  0  0  0  0999 V2000
    2.6732   -1.0466    2.5854 C   0  0  0  0  0  0  0  0  0  0  0  0
    1.7064   -0.2224    1.8480 N   0  0  0  0  0  0  0  0  0  0  0  0
    0.5663   -0.8403    1.3228 C   0  0  0  0  0  0  0  0  0  0  0  0
    0.4016   -2.0755    1.4952 O   0  0  0  0  0  0  0  0  0  0  0  0
   -0.4558   -0.0837    0.5680 C   0  0  0  0  0  0  0  0  0  0  0  0
   -0.3220    1.1985    0.3675 C   0  0  0  0  0  0  0  0  0  0  0  0
   -1.5806   -0.7726    0.0671 N   0  0  0  0  0  0  0  0  0  0  0  0
   -2.6430   -0.2315   -0.6643 C   0  0  0  0  0  0  0  0  0  0  0  0
   -3.7653   -1.1529   -1.1133 C   0  0  0  0  0  0  0  0  0  0  0  0
   -2.7982    0.9486   -1.0097 O   0  0  0  0  0  0  0  0  0  0  0  0
    2.3433   -2.0967    2.6287 H   0  0  0  0  0  0  0  0  0  0  0  0
    2.7628   -0.6958    3.6358 H   0  0  0  0  0  0  0  0  0  0  0  0
    3.6541   -1.0506    2.0550 H   0  0  0  0  0  0  0  0  0  0  0  0
    1.9446    0.7803    1.7684 H   0  0  0  0  0  0  0  0  0  0  0  0
    0.5711    1.6978    0.7756 H   0  0  0  0  0  0  0  0  0  0  0  0
   -0.9883    1.8517   -0.1592 H   0  0  0  0  0  0  0  0  0  0  0  0
   -1.6131   -1.8214    0.2756 H   0  0  0  0  0  0  0  0  0  0  0  0
   -3.6867   -1.2820   -2.2133 H   0  0  0  0  0  0  0  0  0  0  0  0
   -4.7083   -0.6371   -0.8943 H   0  0  0  0  0  0  0  0  0  0  0  0
   -3.6686   -2.1199   -0.5981 H   0  0  0  0  0  0  0  0  0  0  0  0
  1  2  1  0
  1 11  1  0
  1 12  1  0
  1 13  1  0
  2  3  1  0
  2 14  1  0
  3  4  2  0
  3  5  1  0
  5  6  2  3
  5  7  1  0
  6 15  1  0
  6 16  1  0
  7  8  1  0
  7 17  1  0
  8  9  1  0
  8 10  2  0
  9 18  1  0
  9 19  1  0
  9 20  1  0
M  END

> <RosettaParamsInstructions>
M  ROOT 7
M  POLY_N_BB 7
M  POLY_CA_BB 5
M  POLY_C_BB 3
M  POLY_O_BB 4
M  POLY_IGNORE 1 10 9 14 11 12 13 18 19 20
M  POLY_UPPER 2
M  POLY_LOWER 8
M  POLY_CHG 0
M  POLY_PROPERTIES PROTEIN POLYMER ALPHA_AA ALIPHATIC
M  END

$$$$
DHA_new
     RDKit          3D

 20 19  0  0  0  0  0  0  0  0999 V2000
    2.7135   -1.0803    2.5131 C   0  0  0  0  0  0  0  0  0  0  0  0
    1.7049   -0.2527    1.8695 N   0  0  0  0  0  0  0  0  0  0  0  0
    0.5693   -0.8521    1.2680 C   0  0  0  0  0  0  0  0  0  0  0  0
    0.4349   -2.0882    1.2905 O   0  0  0  0  0  0  0  0  0  0  0  0
   -0.4841   -0.0539    0.6011 C   0  0  0  0  0  0  0  0  0  0  0  0
   -0.3926    1.2478    0.5487 C   0  0  0  0  0  0  0  0  0  0  0  0
   -1.5650   -0.7562    0.0392 N   0  0  0  0  0  0  0  0  0  0  0  0
   -2.6609   -0.2008   -0.6325 C   0  0  0  0  0  0  0  0  0  0  0  0
   -3.7095   -1.1683   -1.1546 C   0  0  0  0  0  0  0  0  0  0  0  0
   -2.8685    1.0208   -0.8496 O   0  0  0  0  0  0  0  0  0  0  0  0
    2.4975   -2.1612    2.4003 H   0  0  0  0  0  0  0  0  0  0  0  0
    3.6765   -0.8296    2.0130 H   0  0  0  0  0  0  0  0  0  0  0  0
    2.7401   -0.8677    3.5982 H   0  0  0  0  0  0  0  0  0  0  0  0
    1.8909    0.7692    1.8937 H   0  0  0  0  0  0  0  0  0  0  0  0
   -1.1290    1.8539    0.0787 H   0  0  0  0  0  0  0  0  0  0  0  0
    0.4508    1.7848    0.9881 H   0  0  0  0  0  0  0  0  0  0  0  0
   -1.5787   -1.8308    0.1178 H   0  0  0  0  0  0  0  0  0  0  0  0
   -3.7478   -2.0773   -0.5324 H   0  0  0  0  0  0  0  0  0  0  0  0
   -4.6765   -0.6650   -1.1102 H   0  0  0  0  0  0  0  0  0  0  0  0
   -3.4721   -1.4447   -2.1998 H   0  0  0  0  0  0  0  0  0  0  0  0
  1  2  1  0
  1 11  1  0
  1 12  1  0
  1 13  1  0
  2  3  1  0
  2 14  1  0
  3  4  2  0
  3  5  1  0
  5  6  2  3
  5  7  1  0
  6 15  1  0
  6 16  1  0
  7  8  1  0
  7 17  1  0
  8  9  1  0
  8 10  2  0
  9 18  1  0
  9 19  1  0
  9 20  1  0
M  END

> <RosettaParamsInstructions>
M  ROOT 7
M  POLY_N_BB 7
M  POLY_CA_BB 5
M  POLY_C_BB 3
M  POLY_O_BB 4
M  POLY_IGNORE 1 10 9 14 11 12 13 18 19 20
M  POLY_UPPER 2
M  POLY_LOWER 8
M  POLY_CHG 0
M  POLY_PROPERTIES PROTEIN POLYMER ALPHA_AA ALIPHATIC
M  END

$$$$
DHA_new
     RDKit          3D

 20 19  0  0  0  0  0  0  0  0999 V2000
    2.6932   -1.0538    2.5599 C   0  0  0  0  0  0  0  0  0  0  0  0
    1.6998   -0.2336    1.8542 N   0  0  0  0  0  0  0  0  0  0  0  0
    0.5853   -0.8413    1.3031 C   0  0  0  0  0  0  0  0  0  0  0  0
    0.4371   -2.0930    1.4143 O   0  0  0  0  0  0  0  0  0  0  0  0
   -0.4594   -0.0971    0.5796 C   0  0  0  0  0  0  0  0  0  0  0  0
   -0.3253    1.1992    0.4533 C   0  0  0  0  0  0  0  0  0  0  0  0
   -1.5699   -0.8058    0.0468 N   0  0  0  0  0  0  0  0  0  0  0  0
   -2.6372   -0.2485   -0.6604 C   0  0  0  0  0  0  0  0  0  0  0  0
   -3.7494   -1.1510   -1.1636 C   0  0  0  0  0  0  0  0  0  0  0  0
   -2.7889    0.9444   -0.9363 O   0  0  0  0  0  0  0  0  0  0  0  0
    2.1717   -1.9413    2.9517 H   0  0  0  0  0  0  0  0  0  0  0  0
    3.5396   -1.3158    1.9129 H   0  0  0  0  0  0  0  0  0  0  0  0
    3.0124   -0.4693    3.4676 H   0  0  0  0  0  0  0  0  0  0  0  0
    1.8908    0.7769    1.8059 H   0  0  0  0  0  0  0  0  0  0  0  0
    0.5386    1.7278    0.8714 H   0  0  0  0  0  0  0  0  0  0  0  0
   -1.0186    1.8558   -0.0525 H   0  0  0  0  0  0  0  0  0  0  0  0
   -1.5603   -1.8534    0.2174 H   0  0  0  0  0  0  0  0  0  0  0  0
   -3.4799   -2.2053   -0.9816 H   0  0  0  0  0  0  0  0  0  0  0  0
   -3.8875   -0.9289   -2.2579 H   0  0  0  0  0  0  0  0  0  0  0  0
   -4.6987   -0.9185   -0.6448 H   0  0  0  0  0  0  0  0  0  0  0  0
  1  2  1  0
  1 11  1  0
  1 12  1  0
  1 13  1  0
  2  3  1  0
  2 14  1  0
  3  4  2  0
  3  5  1  0
  5  6  2  3
  5  7  1  0
  6 15  1  0
  6 16  1  0
  7  8  1  0
  7 17  1  0
  8  9  1  0
  8 10  2  0
  9 18  1  0
  9 19  1  0
  9 20  1  0
M  END

> <RosettaParamsInstructions>
M  ROOT 7
M  POLY_N_BB 7
M  POLY_CA_BB 5
M  POLY_C_BB 3
M  POLY_O_BB 4
M  POLY_IGNORE 1 10 9 14 11 12 13 18 19 20
M  POLY_UPPER 2
M  POLY_LOWER 8
M  POLY_CHG 0
M  POLY_PROPERTIES PROTEIN POLYMER ALPHA_AA ALIPHATIC
M  END

$$$$
DHA_new
     RDKit          3D

 20 19  0  0  0  0  0  0  0  0999 V2000
    2.6602   -1.0655    2.5868 C   0  0  0  0  0  0  0  0  0  0  0  0
    1.6710   -0.2383    1.8599 N   0  0  0  0  0  0  0  0  0  0  0  0
    0.5429   -0.8409    1.3030 C   0  0  0  0  0  0  0  0  0  0  0  0
    0.3870   -2.0911    1.4313 O   0  0  0  0  0  0  0  0  0  0  0  0
   -0.4721   -0.0749    0.5717 C   0  0  0  0  0  0  0  0  0  0  0  0
   -0.3069    1.2151    0.4418 C   0  0  0  0  0  0  0  0  0  0  0  0
   -1.5794   -0.7777    0.0446 N   0  0  0  0  0  0  0  0  0  0  0  0
   -2.6454   -0.2455   -0.6755 C   0  0  0  0  0  0  0  0  0  0  0  0
   -3.7336   -1.1529   -1.1553 C   0  0  0  0  0  0  0  0  0  0  0  0
   -2.7743    0.9565   -0.9627 O   0  0  0  0  0  0  0  0  0  0  0  0
    2.2703   -2.0799    2.7447 H   0  0  0  0  0  0  0  0  0  0  0  0
    3.5912   -1.0726    1.9626 H   0  0  0  0  0  0  0  0  0  0  0  0
    2.8780   -0.6105    3.5717 H   0  0  0  0  0  0  0  0  0  0  0  0
    1.9244    0.7642    1.8323 H   0  0  0  0  0  0  0  0  0  0  0  0
    0.5638    1.7277    0.8633 H   0  0  0  0  0  0  0  0  0  0  0  0
   -0.9781    1.8895   -0.0713 H   0  0  0  0  0  0  0  0  0  0  0  0
   -1.6046   -1.8197    0.2131 H   0  0  0  0  0  0  0  0  0  0  0  0
   -3.2730   -2.1461   -1.3279 H   0  0  0  0  0  0  0  0  0  0  0  0
   -4.5463   -1.2222   -0.3946 H   0  0  0  0  0  0  0  0  0  0  0  0
   -4.1816   -0.7675   -2.0986 H   0  0  0  0  0  0  0  0  0  0  0  0
  1  2  1  0
  1 11  1  0
  1 12  1  0
  1 13  1  0
  2  3  1  0
  2 14  1  0
  3  4  2  0
  3  5  1  0
  5  6  2  3
  5  7  1  0
  6 15  1  0
  6 16  1  0
  7  8  1  0
  7 17  1  0
  8  9  1  0
  8 10  2  0
  9 18  1  0
  9 19  1  0
  9 20  1  0
M  END

> <RosettaParamsInstructions>
M  ROOT 7
M  POLY_N_BB 7
M  POLY_CA_BB 5
M  POLY_C_BB 3
M  POLY_O_BB 4
M  POLY_IGNORE 1 10 9 14 11 12 13 18 19 20
M  POLY_UPPER 2
M  POLY_LOWER 8
M  POLY_CHG 0
M  POLY_PROPERTIES PROTEIN POLYMER ALPHA_AA ALIPHATIC
M  END

$$$$
DHA_new
     RDKit          3D

 20 19  0  0  0  0  0  0  0  0999 V2000
    2.7357   -1.0674    2.4964 C   0  0  0  0  0  0  0  0  0  0  0  0
    1.6983   -0.2425    1.8318 N   0  0  0  0  0  0  0  0  0  0  0  0
    0.5808   -0.8648    1.2679 C   0  0  0  0  0  0  0  0  0  0  0  0
    0.4561   -2.1267    1.3249 O   0  0  0  0  0  0  0  0  0  0  0  0
   -0.4852   -0.0927    0.5926 C   0  0  0  0  0  0  0  0  0  0  0  0
   -0.3666    1.2047    0.5286 C   0  0  0  0  0  0  0  0  0  0  0  0
   -1.5795   -0.7966    0.0498 N   0  0  0  0  0  0  0  0  0  0  0  0
   -2.6600   -0.2193   -0.6140 C   0  0  0  0  0  0  0  0  0  0  0  0
   -3.7608   -1.1327   -1.1393 C   0  0  0  0  0  0  0  0  0  0  0  0
   -2.8441    0.9809   -0.8379 O   0  0  0  0  0  0  0  0  0  0  0  0
    2.3019   -2.0720    2.6732 H   0  0  0  0  0  0  0  0  0  0  0  0
    2.9503   -0.5380    3.4558 H   0  0  0  0  0  0  0  0  0  0  0  0
    3.6493   -1.1192    1.8928 H   0  0  0  0  0  0  0  0  0  0  0  0
    1.8856    0.7750    1.8342 H   0  0  0  0  0  0  0  0  0  0  0  0
    0.4840    1.6974    0.9559 H   0  0  0  0  0  0  0  0  0  0  0  0
   -1.0869    1.8416    0.0608 H   0  0  0  0  0  0  0  0  0  0  0  0
   -1.5562   -1.8521    0.1690 H   0  0  0  0  0  0  0  0  0  0  0  0
   -4.5254   -1.2035   -0.3648 H   0  0  0  0  0  0  0  0  0  0  0  0
   -4.1810   -0.7176   -2.0679 H   0  0  0  0  0  0  0  0  0  0  0  0
   -3.3028   -2.1069   -1.3689 H   0  0  0  0  0  0  0  0  0  0  0  0
  1  2  1  0
  1 11  1  0
  1 12  1  0
  1 13  1  0
  2  3  1  0
  2 14  1  0
  3  4  2  0
  3  5  1  0
  5  6  2  3
  5  7  1  0
  6 15  1  0
  6 16  1  0
  7  8  1  0
  7 17  1  0
  8  9  1  0
  8 10  2  0
  9 18  1  0
  9 19  1  0
  9 20  1  0
M  END

> <RosettaParamsInstructions>
M  ROOT 7
M  POLY_N_BB 7
M  POLY_CA_BB 5
M  POLY_C_BB 3
M  POLY_O_BB 4
M  POLY_IGNORE 1 10 9 14 11 12 13 18 19 20
M  POLY_UPPER 2
M  POLY_LOWER 8
M  POLY_CHG 0
M  POLY_PROPERTIES PROTEIN POLYMER ALPHA_AA ALIPHATIC
M  END

$$$$
DHA_new
     RDKit          3D

 20 19  0  0  0  0  0  0  0  0999 V2000
    2.6995   -1.0353    2.6029 C   0  0  0  0  0  0  0  0  0  0  0  0
    1.7026   -0.2486    1.8296 N   0  0  0  0  0  0  0  0  0  0  0  0
    0.5521   -0.8637    1.3267 C   0  0  0  0  0  0  0  0  0  0  0  0
    0.3481   -2.0831    1.5213 O   0  0  0  0  0  0  0  0  0  0  0  0
   -0.4596   -0.1283    0.5582 C   0  0  0  0  0  0  0  0  0  0  0  0
   -0.2503    1.1431    0.3533 C   0  0  0  0  0  0  0  0  0  0  0  0
   -1.6054   -0.7853    0.0686 N   0  0  0  0  0  0  0  0  0  0  0  0
   -2.6525   -0.2324   -0.6736 C   0  0  0  0  0  0  0  0  0  0  0  0
   -3.7953   -1.1247   -1.1013 C   0  0  0  0  0  0  0  0  0  0  0  0
   -2.7566    0.9619   -1.0386 O   0  0  0  0  0  0  0  0  0  0  0  0
    2.6001   -2.0917    2.3356 H   0  0  0  0  0  0  0  0  0  0  0  0
    2.5001   -0.8141    3.6550 H   0  0  0  0  0  0  0  0  0  0  0  0
    3.7257   -0.7086    2.3515 H   0  0  0  0  0  0  0  0  0  0  0  0
    1.9901    0.7475    1.7400 H   0  0  0  0  0  0  0  0  0  0  0  0
    0.6340    1.6717    0.7256 H   0  0  0  0  0  0  0  0  0  0  0  0
   -0.9261    1.7521   -0.1902 H   0  0  0  0  0  0  0  0  0  0  0  0
   -1.6647   -1.8314    0.3020 H   0  0  0  0  0  0  0  0  0  0  0  0
   -3.7296   -2.1055   -0.6128 H   0  0  0  0  0  0  0  0  0  0  0  0
   -3.7920   -1.2770   -2.1977 H   0  0  0  0  0  0  0  0  0  0  0  0
   -4.7264   -0.5987   -0.8154 H   0  0  0  0  0  0  0  0  0  0  0  0
  1  2  1  0
  1 11  1  0
  1 12  1  0
  1 13  1  0
  2  3  1  0
  2 14  1  0
  3  4  2  0
  3  5  1  0
  5  6  2  3
  5  7  1  0
  6 15  1  0
  6 16  1  0
  7  8  1  0
  7 17  1  0
  8  9  1  0
  8 10  2  0
  9 18  1  0
  9 19  1  0
  9 20  1  0
M  END

> <RosettaParamsInstructions>
M  ROOT 7
M  POLY_N_BB 7
M  POLY_CA_BB 5
M  POLY_C_BB 3
M  POLY_O_BB 4
M  POLY_IGNORE 1 10 9 14 11 12 13 18 19 20
M  POLY_UPPER 2
M  POLY_LOWER 8
M  POLY_CHG 0
M  POLY_PROPERTIES PROTEIN POLYMER ALPHA_AA ALIPHATIC
M  END

$$$$
DHA_new
     RDKit          3D

 20 19  0  0  0  0  0  0  0  0999 V2000
    2.7077   -1.0841    2.5008 C   0  0  0  0  0  0  0  0  0  0  0  0
    1.6918   -0.2447    1.8442 N   0  0  0  0  0  0  0  0  0  0  0  0
    0.5722   -0.8412    1.2652 C   0  0  0  0  0  0  0  0  0  0  0  0
    0.4396   -2.1015    1.3099 O   0  0  0  0  0  0  0  0  0  0  0  0
   -0.4642   -0.0612    0.6026 C   0  0  0  0  0  0  0  0  0  0  0  0
   -0.3754    1.2396    0.5292 C   0  0  0  0  0  0  0  0  0  0  0  0
   -1.5766   -0.7421    0.0359 N   0  0  0  0  0  0  0  0  0  0  0  0
   -2.6788   -0.2277   -0.6388 C   0  0  0  0  0  0  0  0  0  0  0  0
   -3.7263   -1.1945   -1.1415 C   0  0  0  0  0  0  0  0  0  0  0  0
   -2.8218    0.9937   -0.8362 O   0  0  0  0  0  0  0  0  0  0  0  0
    3.5236   -1.3438    1.8224 H   0  0  0  0  0  0  0  0  0  0  0  0
    3.1139   -0.5038    3.3427 H   0  0  0  0  0  0  0  0  0  0  0  0
    2.1749   -1.9474    2.9213 H   0  0  0  0  0  0  0  0  0  0  0  0
    1.8405    0.7625    1.8328 H   0  0  0  0  0  0  0  0  0  0  0  0
   -1.0830    1.8806    0.0665 H   0  0  0  0  0  0  0  0  0  0  0  0
    0.4822    1.7613    0.9665 H   0  0  0  0  0  0  0  0  0  0  0  0
   -1.5705   -1.8181    0.1418 H   0  0  0  0  0  0  0  0  0  0  0  0
   -3.5842   -2.1856   -0.6945 H   0  0  0  0  0  0  0  0  0  0  0  0
   -4.6982   -0.7325   -0.8940 H   0  0  0  0  0  0  0  0  0  0  0  0
   -3.5739   -1.2618   -2.2359 H   0  0  0  0  0  0  0  0  0  0  0  0
  1  2  1  0
  1 11  1  0
  1 12  1  0
  1 13  1  0
  2  3  1  0
  2 14  1  0
  3  4  2  0
  3  5  1  0
  5  6  2  3
  5  7  1  0
  6 15  1  0
  6 16  1  0
  7  8  1  0
  7 17  1  0
  8  9  1  0
  8 10  2  0
  9 18  1  0
  9 19  1  0
  9 20  1  0
M  END

> <RosettaParamsInstructions>
M  ROOT 7
M  POLY_N_BB 7
M  POLY_CA_BB 5
M  POLY_C_BB 3
M  POLY_O_BB 4
M  POLY_IGNORE 1 10 9 14 11 12 13 18 19 20
M  POLY_UPPER 2
M  POLY_LOWER 8
M  POLY_CHG 0
M  POLY_PROPERTIES PROTEIN POLYMER ALPHA_AA ALIPHATIC
M  END

$$$$
DHA_new
     RDKit          3D

 20 19  0  0  0  0  0  0  0  0999 V2000
    2.6396   -1.0795    2.5755 C   0  0  0  0  0  0  0  0  0  0  0  0
    1.6749   -0.2426    1.8283 N   0  0  0  0  0  0  0  0  0  0  0  0
    0.5271   -0.8444    1.3040 C   0  0  0  0  0  0  0  0  0  0  0  0
    0.3504   -2.0870    1.4859 O   0  0  0  0  0  0  0  0  0  0  0  0
   -0.4659   -0.0733    0.5554 C   0  0  0  0  0  0  0  0  0  0  0  0
   -0.2831    1.2236    0.3647 C   0  0  0  0  0  0  0  0  0  0  0  0
   -1.5836   -0.7685    0.0699 N   0  0  0  0  0  0  0  0  0  0  0  0
   -2.6374   -0.2140   -0.6642 C   0  0  0  0  0  0  0  0  0  0  0  0
   -3.7582   -1.1436   -1.0980 C   0  0  0  0  0  0  0  0  0  0  0  0
   -2.7734    0.9623   -1.0112 O   0  0  0  0  0  0  0  0  0  0  0  0
    2.3017   -2.1352    2.5850 H   0  0  0  0  0  0  0  0  0  0  0  0
    2.7657   -0.6799    3.6161 H   0  0  0  0  0  0  0  0  0  0  0  0
    3.5957   -0.9614    2.0616 H   0  0  0  0  0  0  0  0  0  0  0  0
    1.9524    0.7585    1.7596 H   0  0  0  0  0  0  0  0  0  0  0  0
    0.6030    1.7163    0.7629 H   0  0  0  0  0  0  0  0  0  0  0  0
   -0.9486    1.8585   -0.1640 H   0  0  0  0  0  0  0  0  0  0  0  0
   -1.6228   -1.8069    0.2845 H   0  0  0  0  0  0  0  0  0  0  0  0
   -3.2437   -2.1027   -1.3746 H   0  0  0  0  0  0  0  0  0  0  0  0
   -4.2865   -0.7586   -1.9702 H   0  0  0  0  0  0  0  0  0  0  0  0
   -4.4138   -1.2738   -0.2303 H   0  0  0  0  0  0  0  0  0  0  0  0
  1  2  1  0
  1 11  1  0
  1 12  1  0
  1 13  1  0
  2  3  1  0
  2 14  1  0
  3  4  2  0
  3  5  1  0
  5  6  2  3
  5  7  1  0
  6 15  1  0
  6 16  1  0
  7  8  1  0
  7 17  1  0
  8  9  1  0
  8 10  2  0
  9 18  1  0
  9 19  1  0
  9 20  1  0
M  END

> <RosettaParamsInstructions>
M  ROOT 7
M  POLY_N_BB 7
M  POLY_CA_BB 5
M  POLY_C_BB 3
M  POLY_O_BB 4
M  POLY_IGNORE 1 10 9 14 11 12 13 18 19 20
M  POLY_UPPER 2
M  POLY_LOWER 8
M  POLY_CHG 0
M  POLY_PROPERTIES PROTEIN POLYMER ALPHA_AA ALIPHATIC
M  END

$$$$
DHA_new
     RDKit          3D

 20 19  0  0  0  0  0  0  0  0999 V2000
    2.7254   -1.0702    2.4905 C   0  0  0  0  0  0  0  0  0  0  0  0
    1.6755   -0.2234    1.9037 N   0  0  0  0  0  0  0  0  0  0  0  0
    0.6034   -0.8345    1.2590 C   0  0  0  0  0  0  0  0  0  0  0  0
    0.5643   -2.0978    1.1974 O   0  0  0  0  0  0  0  0  0  0  0  0
   -0.5085   -0.0695    0.6335 C   0  0  0  0  0  0  0  0  0  0  0  0
   -0.4958    1.2415    0.6811 C   0  0  0  0  0  0  0  0  0  0  0  0
   -1.5528   -0.7654    0.0025 N   0  0  0  0  0  0  0  0  0  0  0  0
   -2.6616   -0.2347   -0.6285 C   0  0  0  0  0  0  0  0  0  0  0  0
   -3.6828   -1.1614   -1.2532 C   0  0  0  0  0  0  0  0  0  0  0  0
   -2.9320    0.9724   -0.7493 O   0  0  0  0  0  0  0  0  0  0  0  0
    2.5341   -1.1569    3.5887 H   0  0  0  0  0  0  0  0  0  0  0  0
    3.7077   -0.6000    2.3339 H   0  0  0  0  0  0  0  0  0  0  0  0
    2.7445   -2.0734    2.0091 H   0  0  0  0  0  0  0  0  0  0  0  0
    1.8399    0.7875    2.0307 H   0  0  0  0  0  0  0  0  0  0  0  0
    0.3606    1.7222    1.1958 H   0  0  0  0  0  0  0  0  0  0  0  0
   -1.2500    1.8946    0.2609 H   0  0  0  0  0  0  0  0  0  0  0  0
   -1.4693   -1.8349    0.0184 H   0  0  0  0  0  0  0  0  0  0  0  0
   -4.5033   -1.3030   -0.5428 H   0  0  0  0  0  0  0  0  0  0  0  0
   -4.0781   -0.7122   -2.1750 H   0  0  0  0  0  0  0  0  0  0  0  0
   -3.2275   -2.1333   -1.5156 H   0  0  0  0  0  0  0  0  0  0  0  0
  1  2  1  0
  1 11  1  0
  1 12  1  0
  1 13  1  0
  2  3  1  0
  2 14  1  0
  3  4  2  0
  3  5  1  0
  5  6  2  3
  5  7  1  0
  6 15  1  0
  6 16  1  0
  7  8  1  0
  7 17  1  0
  8  9  1  0
  8 10  2  0
  9 18  1  0
  9 19  1  0
  9 20  1  0
M  END

> <RosettaParamsInstructions>
M  ROOT 7
M  POLY_N_BB 7
M  POLY_CA_BB 5
M  POLY_C_BB 3
M  POLY_O_BB 4
M  POLY_IGNORE 1 10 9 14 11 12 13 18 19 20
M  POLY_UPPER 2
M  POLY_LOWER 8
M  POLY_CHG 0
M  POLY_PROPERTIES PROTEIN POLYMER ALPHA_AA ALIPHATIC
M  END

$$$$
DHA_new
     RDKit          3D

 20 19  0  0  0  0  0  0  0  0999 V2000
    2.5993   -1.0359    2.6598 C   0  0  0  0  0  0  0  0  0  0  0  0
    1.6692   -0.1996    1.8620 N   0  0  0  0  0  0  0  0  0  0  0  0
    0.5254   -0.8149    1.3431 C   0  0  0  0  0  0  0  0  0  0  0  0
    0.3207   -2.0396    1.5637 O   0  0  0  0  0  0  0  0  0  0  0  0
   -0.4528   -0.0851    0.5461 C   0  0  0  0  0  0  0  0  0  0  0  0
   -0.2293    1.1885    0.3231 C   0  0  0  0  0  0  0  0  0  0  0  0
   -1.5851   -0.7982    0.0617 N   0  0  0  0  0  0  0  0  0  0  0  0
   -2.6000   -0.2557   -0.7049 C   0  0  0  0  0  0  0  0  0  0  0  0
   -3.7320   -1.1701   -1.1324 C   0  0  0  0  0  0  0  0  0  0  0  0
   -2.6857    0.9217   -1.0878 O   0  0  0  0  0  0  0  0  0  0  0  0
    2.3218   -0.9799    3.7126 H   0  0  0  0  0  0  0  0  0  0  0  0
    2.5447   -2.0465    2.2515 H   0  0  0  0  0  0  0  0  0  0  0  0
    3.6321   -0.6805    2.5411 H   0  0  0  0  0  0  0  0  0  0  0  0
    1.9757    0.7830    1.7712 H   0  0  0  0  0  0  0  0  0  0  0  0
   -0.8896    1.8257   -0.2556 H   0  0  0  0  0  0  0  0  0  0  0  0
    0.6540    1.6553    0.7261 H   0  0  0  0  0  0  0  0  0  0  0  0
   -1.6473   -1.8317    0.3147 H   0  0  0  0  0  0  0  0  0  0  0  0
   -3.9929   -0.8854   -2.1844 H   0  0  0  0  0  0  0  0  0  0  0  0
   -3.4062   -2.2231   -1.0671 H   0  0  0  0  0  0  0  0  0  0  0  0
   -4.6284   -0.9802   -0.5036 H   0  0  0  0  0  0  0  0  0  0  0  0
  1  2  1  0
  1 11  1  0
  1 12  1  0
  1 13  1  0
  2  3  1  0
  2 14  1  0
  3  4  2  0
  3  5  1  0
  5  6  2  3
  5  7  1  0
  6 15  1  0
  6 16  1  0
  7  8  1  0
  7 17  1  0
  8  9  1  0
  8 10  2  0
  9 18  1  0
  9 19  1  0
  9 20  1  0
M  END

> <RosettaParamsInstructions>
M  ROOT 7
M  POLY_N_BB 7
M  POLY_CA_BB 5
M  POLY_C_BB 3
M  POLY_O_BB 4
M  POLY_IGNORE 1 10 9 14 11 12 13 18 19 20
M  POLY_UPPER 2
M  POLY_LOWER 8
M  POLY_CHG 0
M  POLY_PROPERTIES PROTEIN POLYMER ALPHA_AA ALIPHATIC
M  END

$$$$
DHA_new
     RDKit          3D

 20 19  0  0  0  0  0  0  0  0999 V2000
    2.6513   -1.1033    2.5815 C   0  0  0  0  0  0  0  0  0  0  0  0
    1.6966   -0.2526    1.8711 N   0  0  0  0  0  0  0  0  0  0  0  0
    0.5569   -0.8204    1.2982 C   0  0  0  0  0  0  0  0  0  0  0  0
    0.3657   -2.0752    1.4034 O   0  0  0  0  0  0  0  0  0  0  0  0
   -0.4537   -0.0452    0.5681 C   0  0  0  0  0  0  0  0  0  0  0  0
   -0.3233    1.2587    0.4184 C   0  0  0  0  0  0  0  0  0  0  0  0
   -1.5638   -0.7336    0.0334 N   0  0  0  0  0  0  0  0  0  0  0  0
   -2.6408   -0.2055   -0.6930 C   0  0  0  0  0  0  0  0  0  0  0  0
   -3.7134   -1.1723   -1.1572 C   0  0  0  0  0  0  0  0  0  0  0  0
   -2.8161    1.0004   -1.0058 O   0  0  0  0  0  0  0  0  0  0  0  0
    2.2429   -2.1063    2.7861 H   0  0  0  0  0  0  0  0  0  0  0  0
    3.5849   -1.2202    2.0146 H   0  0  0  0  0  0  0  0  0  0  0  0
    2.8834   -0.5408    3.5315 H   0  0  0  0  0  0  0  0  0  0  0  0
    1.9088    0.7514    1.8218 H   0  0  0  0  0  0  0  0  0  0  0  0
    0.5453    1.7799    0.8397 H   0  0  0  0  0  0  0  0  0  0  0  0
   -1.0223    1.8654   -0.0988 H   0  0  0  0  0  0  0  0  0  0  0  0
   -1.5738   -1.7754    0.2085 H   0  0  0  0  0  0  0  0  0  0  0  0
   -4.3490   -1.3887   -0.2746 H   0  0  0  0  0  0  0  0  0  0  0  0
   -3.2517   -2.1399   -1.4607 H   0  0  0  0  0  0  0  0  0  0  0  0
   -4.3343   -0.7287   -1.9456 H   0  0  0  0  0  0  0  0  0  0  0  0
  1  2  1  0
  1 11  1  0
  1 12  1  0
  1 13  1  0
  2  3  1  0
  2 14  1  0
  3  4  2  0
  3  5  1  0
  5  6  2  3
  5  7  1  0
  6 15  1  0
  6 16  1  0
  7  8  1  0
  7 17  1  0
  8  9  1  0
  8 10  2  0
  9 18  1  0
  9 19  1  0
  9 20  1  0
M  END

> <RosettaParamsInstructions>
M  ROOT 7
M  POLY_N_BB 7
M  POLY_CA_BB 5
M  POLY_C_BB 3
M  POLY_O_BB 4
M  POLY_IGNORE 1 10 9 14 11 12 13 18 19 20
M  POLY_UPPER 2
M  POLY_LOWER 8
M  POLY_CHG 0
M  POLY_PROPERTIES PROTEIN POLYMER ALPHA_AA ALIPHATIC
M  END

$$$$
DHA_new
     RDKit          3D

 20 19  0  0  0  0  0  0  0  0999 V2000
    2.7086   -1.0563    2.5424 C   0  0  0  0  0  0  0  0  0  0  0  0
    1.6970   -0.2219    1.8680 N   0  0  0  0  0  0  0  0  0  0  0  0
    0.5703   -0.8293    1.2826 C   0  0  0  0  0  0  0  0  0  0  0  0
    0.4647   -2.1014    1.3588 O   0  0  0  0  0  0  0  0  0  0  0  0
   -0.4811   -0.0539    0.5916 C   0  0  0  0  0  0  0  0  0  0  0  0
   -0.3952    1.2526    0.5003 C   0  0  0  0  0  0  0  0  0  0  0  0
   -1.5554   -0.7659    0.0479 N   0  0  0  0  0  0  0  0  0  0  0  0
   -2.6369   -0.2419   -0.6334 C   0  0  0  0  0  0  0  0  0  0  0  0
   -3.7108   -1.1879   -1.1518 C   0  0  0  0  0  0  0  0  0  0  0  0
   -2.8332    0.9411   -0.8744 O   0  0  0  0  0  0  0  0  0  0  0  0
    3.4238   -1.3864    1.7817 H   0  0  0  0  0  0  0  0  0  0  0  0
    3.1845   -0.5051    3.3566 H   0  0  0  0  0  0  0  0  0  0  0  0
    2.1616   -1.9657    2.9003 H   0  0  0  0  0  0  0  0  0  0  0  0
    1.9057    0.7929    1.8791 H   0  0  0  0  0  0  0  0  0  0  0  0
   -1.1331    1.8600    0.0085 H   0  0  0  0  0  0  0  0  0  0  0  0
    0.4868    1.7389    0.9574 H   0  0  0  0  0  0  0  0  0  0  0  0
   -1.5288   -1.8183    0.1767 H   0  0  0  0  0  0  0  0  0  0  0  0
   -3.5246   -2.2044   -0.7811 H   0  0  0  0  0  0  0  0  0  0  0  0
   -4.6833   -0.7657   -0.8059 H   0  0  0  0  0  0  0  0  0  0  0  0
   -3.7271   -1.1335   -2.2646 H   0  0  0  0  0  0  0  0  0  0  0  0
  1  2  1  0
  1 11  1  0
  1 12  1  0
  1 13  1  0
  2  3  1  0
  2 14  1  0
  3  4  2  0
  3  5  1  0
  5  6  2  3
  5  7  1  0
  6 15  1  0
  6 16  1  0
  7  8  1  0
  7 17  1  0
  8  9  1  0
  8 10  2  0
  9 18  1  0
  9 19  1  0
  9 20  1  0
M  END

> <RosettaParamsInstructions>
M  ROOT 7
M  POLY_N_BB 7
M  POLY_CA_BB 5
M  POLY_C_BB 3
M  POLY_O_BB 4
M  POLY_IGNORE 1 10 9 14 11 12 13 18 19 20
M  POLY_UPPER 2
M  POLY_LOWER 8
M  POLY_CHG 0
M  POLY_PROPERTIES PROTEIN POLYMER ALPHA_AA ALIPHATIC
M  END

$$$$
DHA_new
     RDKit          3D

 20 19  0  0  0  0  0  0  0  0999 V2000
    2.6722   -1.0499    2.5885 C   0  0  0  0  0  0  0  0  0  0  0  0
    1.6749   -0.1968    1.9123 N   0  0  0  0  0  0  0  0  0  0  0  0
    0.5845   -0.8159    1.3063 C   0  0  0  0  0  0  0  0  0  0  0  0
    0.4720   -2.0765    1.3466 O   0  0  0  0  0  0  0  0  0  0  0  0
   -0.4768   -0.0717    0.6008 C   0  0  0  0  0  0  0  0  0  0  0  0
   -0.3832    1.2305    0.5456 C   0  0  0  0  0  0  0  0  0  0  0  0
   -1.5561   -0.7694    0.0084 N   0  0  0  0  0  0  0  0  0  0  0  0
   -2.6378   -0.2202   -0.6927 C   0  0  0  0  0  0  0  0  0  0  0  0
   -3.6704   -1.1916   -1.2334 C   0  0  0  0  0  0  0  0  0  0  0  0
   -2.8523    0.9773   -0.9252 O   0  0  0  0  0  0  0  0  0  0  0  0
    2.2449   -1.2650    3.5841 H   0  0  0  0  0  0  0  0  0  0  0  0
    3.6567   -0.5909    2.5965 H   0  0  0  0  0  0  0  0  0  0  0  0
    2.7603   -1.9848    1.9695 H   0  0  0  0  0  0  0  0  0  0  0  0
    1.8829    0.8033    1.9522 H   0  0  0  0  0  0  0  0  0  0  0  0
   -1.1023    1.8653    0.0564 H   0  0  0  0  0  0  0  0  0  0  0  0
    0.4560    1.7249    1.0104 H   0  0  0  0  0  0  0  0  0  0  0  0
   -1.5088   -1.8317    0.1282 H   0  0  0  0  0  0  0  0  0  0  0  0
   -4.6510   -0.7358   -1.0136 H   0  0  0  0  0  0  0  0  0  0  0  0
   -3.6199   -2.1396   -0.6894 H   0  0  0  0  0  0  0  0  0  0  0  0
   -3.5524   -1.3139   -2.3105 H   0  0  0  0  0  0  0  0  0  0  0  0
  1  2  1  0
  1 11  1  0
  1 12  1  0
  1 13  1  0
  2  3  1  0
  2 14  1  0
  3  4  2  0
  3  5  1  0
  5  6  2  3
  5  7  1  0
  6 15  1  0
  6 16  1  0
  7  8  1  0
  7 17  1  0
  8  9  1  0
  8 10  2  0
  9 18  1  0
  9 19  1  0
  9 20  1  0
M  END

> <RosettaParamsInstructions>
M  ROOT 7
M  POLY_N_BB 7
M  POLY_CA_BB 5
M  POLY_C_BB 3
M  POLY_O_BB 4
M  POLY_IGNORE 1 10 9 14 11 12 13 18 19 20
M  POLY_UPPER 2
M  POLY_LOWER 8
M  POLY_CHG 0
M  POLY_PROPERTIES PROTEIN POLYMER ALPHA_AA ALIPHATIC
M  END

$$$$
DHA_new
     RDKit          3D

 20 19  0  0  0  0  0  0  0  0999 V2000
    2.6247   -1.0432    2.6682 C   0  0  0  0  0  0  0  0  0  0  0  0
    1.6973   -0.2526    1.8912 N   0  0  0  0  0  0  0  0  0  0  0  0
    0.5261   -0.7964    1.3315 C   0  0  0  0  0  0  0  0  0  0  0  0
    0.3161   -2.0359    1.5435 O   0  0  0  0  0  0  0  0  0  0  0  0
   -0.4595   -0.0586    0.5332 C   0  0  0  0  0  0  0  0  0  0  0  0
   -0.2781    1.2302    0.2902 C   0  0  0  0  0  0  0  0  0  0  0  0
   -1.5712   -0.7705    0.0549 N   0  0  0  0  0  0  0  0  0  0  0  0
   -2.6030   -0.2449   -0.7138 C   0  0  0  0  0  0  0  0  0  0  0  0
   -3.7394   -1.1611   -1.1514 C   0  0  0  0  0  0  0  0  0  0  0  0
   -2.7471    0.9291   -1.1224 O   0  0  0  0  0  0  0  0  0  0  0  0
    3.1226   -0.4276    3.4221 H   0  0  0  0  0  0  0  0  0  0  0  0
    2.1168   -1.8877    3.1839 H   0  0  0  0  0  0  0  0  0  0  0  0
    3.3997   -1.5075    2.0226 H   0  0  0  0  0  0  0  0  0  0  0  0
    1.9291    0.7439    1.7589 H   0  0  0  0  0  0  0  0  0  0  0  0
   -0.9407    1.8276   -0.2740 H   0  0  0  0  0  0  0  0  0  0  0  0
    0.6047    1.7385    0.6857 H   0  0  0  0  0  0  0  0  0  0  0  0
   -1.6278   -1.7984    0.3014 H   0  0  0  0  0  0  0  0  0  0  0  0
   -3.5483   -1.4541   -2.1826 H   0  0  0  0  0  0  0  0  0  0  0  0
   -3.7450   -2.0611   -0.4923 H   0  0  0  0  0  0  0  0  0  0  0  0
   -4.6834   -0.6219   -1.0101 H   0  0  0  0  0  0  0  0  0  0  0  0
  1  2  1  0
  1 11  1  0
  1 12  1  0
  1 13  1  0
  2  3  1  0
  2 14  1  0
  3  4  2  0
  3  5  1  0
  5  6  2  3
  5  7  1  0
  6 15  1  0
  6 16  1  0
  7  8  1  0
  7 17  1  0
  8  9  1  0
  8 10  2  0
  9 18  1  0
  9 19  1  0
  9 20  1  0
M  END

> <RosettaParamsInstructions>
M  ROOT 7
M  POLY_N_BB 7
M  POLY_CA_BB 5
M  POLY_C_BB 3
M  POLY_O_BB 4
M  POLY_IGNORE 1 10 9 14 11 12 13 18 19 20
M  POLY_UPPER 2
M  POLY_LOWER 8
M  POLY_CHG 0
M  POLY_PROPERTIES PROTEIN POLYMER ALPHA_AA ALIPHATIC
M  END

$$$$
DHA_new
     RDKit          3D

 20 19  0  0  0  0  0  0  0  0999 V2000
    2.6162   -1.0672    2.6363 C   0  0  0  0  0  0  0  0  0  0  0  0
    1.7004   -0.2072    1.8662 N   0  0  0  0  0  0  0  0  0  0  0  0
    0.5488   -0.7953    1.3340 C   0  0  0  0  0  0  0  0  0  0  0  0
    0.3414   -2.0403    1.5357 O   0  0  0  0  0  0  0  0  0  0  0  0
   -0.4443   -0.0468    0.5470 C   0  0  0  0  0  0  0  0  0  0  0  0
   -0.2619    1.2363    0.3204 C   0  0  0  0  0  0  0  0  0  0  0  0
   -1.5772   -0.7605    0.0587 N   0  0  0  0  0  0  0  0  0  0  0  0
   -2.6342   -0.2506   -0.7040 C   0  0  0  0  0  0  0  0  0  0  0  0
   -3.7431   -1.1908   -1.1188 C   0  0  0  0  0  0  0  0  0  0  0  0
   -2.7316    0.9518   -1.0761 O   0  0  0  0  0  0  0  0  0  0  0  0
    3.2522   -0.4408    3.2909 H   0  0  0  0  0  0  0  0  0  0  0  0
    1.9409   -1.7343    3.2389 H   0  0  0  0  0  0  0  0  0  0  0  0
    3.2350   -1.6897    1.9788 H   0  0  0  0  0  0  0  0  0  0  0  0
    1.9594    0.7828    1.7618 H   0  0  0  0  0  0  0  0  0  0  0  0
    0.6368    1.7329    0.7260 H   0  0  0  0  0  0  0  0  0  0  0  0
   -0.9175    1.8781   -0.2376 H   0  0  0  0  0  0  0  0  0  0  0  0
   -1.6399   -1.8040    0.2939 H   0  0  0  0  0  0  0  0  0  0  0  0
   -4.1390   -0.8501   -2.0993 H   0  0  0  0  0  0  0  0  0  0  0  0
   -3.2565   -2.1701   -1.2895 H   0  0  0  0  0  0  0  0  0  0  0  0
   -4.4925   -1.1864   -0.3224 H   0  0  0  0  0  0  0  0  0  0  0  0
  1  2  1  0
  1 11  1  0
  1 12  1  0
  1 13  1  0
  2  3  1  0
  2 14  1  0
  3  4  2  0
  3  5  1  0
  5  6  2  3
  5  7  1  0
  6 15  1  0
  6 16  1  0
  7  8  1  0
  7 17  1  0
  8  9  1  0
  8 10  2  0
  9 18  1  0
  9 19  1  0
  9 20  1  0
M  END

> <RosettaParamsInstructions>
M  ROOT 7
M  POLY_N_BB 7
M  POLY_CA_BB 5
M  POLY_C_BB 3
M  POLY_O_BB 4
M  POLY_IGNORE 1 10 9 14 11 12 13 18 19 20
M  POLY_UPPER 2
M  POLY_LOWER 8
M  POLY_CHG 0
M  POLY_PROPERTIES PROTEIN POLYMER ALPHA_AA ALIPHATIC
M  END

$$$$
DHA_new
     RDKit          3D

 20 19  0  0  0  0  0  0  0  0999 V2000
    2.7043   -1.0592    2.5635 C   0  0  0  0  0  0  0  0  0  0  0  0
    1.7007   -0.2610    1.8291 N   0  0  0  0  0  0  0  0  0  0  0  0
    0.5479   -0.8630    1.2970 C   0  0  0  0  0  0  0  0  0  0  0  0
    0.3702   -2.1150    1.4527 O   0  0  0  0  0  0  0  0  0  0  0  0
   -0.4543   -0.0849    0.5676 C   0  0  0  0  0  0  0  0  0  0  0  0
   -0.3081    1.1964    0.3880 C   0  0  0  0  0  0  0  0  0  0  0  0
   -1.5686   -0.7910    0.0788 N   0  0  0  0  0  0  0  0  0  0  0  0
   -2.6187   -0.2315   -0.6331 C   0  0  0  0  0  0  0  0  0  0  0  0
   -3.7511   -1.1454   -1.0896 C   0  0  0  0  0  0  0  0  0  0  0  0
   -2.7904    0.9560   -0.9743 O   0  0  0  0  0  0  0  0  0  0  0  0
    3.5365   -1.2112    1.8681 H   0  0  0  0  0  0  0  0  0  0  0  0
    2.2408   -2.0320    2.8545 H   0  0  0  0  0  0  0  0  0  0  0  0
    3.0017   -0.4785    3.4425 H   0  0  0  0  0  0  0  0  0  0  0  0
    1.8947    0.7363    1.7349 H   0  0  0  0  0  0  0  0  0  0  0  0
    0.5629    1.7524    0.7693 H   0  0  0  0  0  0  0  0  0  0  0  0
   -1.0159    1.8116   -0.1405 H   0  0  0  0  0  0  0  0  0  0  0  0
   -1.6322   -1.8469    0.2591 H   0  0  0  0  0  0  0  0  0  0  0  0
   -4.7083   -0.6730   -0.7506 H   0  0  0  0  0  0  0  0  0  0  0  0
   -3.6565   -1.1851   -2.1793 H   0  0  0  0  0  0  0  0  0  0  0  0
   -3.6619   -2.1271   -0.5967 H   0  0  0  0  0  0  0  0  0  0  0  0
  1  2  1  0
  1 11  1  0
  1 12  1  0
  1 13  1  0
  2  3  1  0
  2 14  1  0
  3  4  2  0
  3  5  1  0
  5  6  2  3
  5  7  1  0
  6 15  1  0
  6 16  1  0
  7  8  1  0
  7 17  1  0
  8  9  1  0
  8 10  2  0
  9 18  1  0
  9 19  1  0
  9 20  1  0
M  END

> <RosettaParamsInstructions>
M  ROOT 7
M  POLY_N_BB 7
M  POLY_CA_BB 5
M  POLY_C_BB 3
M  POLY_O_BB 4
M  POLY_IGNORE 1 10 9 14 11 12 13 18 19 20
M  POLY_UPPER 2
M  POLY_LOWER 8
M  POLY_CHG 0
M  POLY_PROPERTIES PROTEIN POLYMER ALPHA_AA ALIPHATIC
M  END

$$$$
DHA_new
     RDKit          3D

 20 19  0  0  0  0  0  0  0  0999 V2000
    2.6682   -1.0355    2.5781 C   0  0  0  0  0  0  0  0  0  0  0  0
    1.6995   -0.2234    1.8135 N   0  0  0  0  0  0  0  0  0  0  0  0
    0.5679   -0.8499    1.3286 C   0  0  0  0  0  0  0  0  0  0  0  0
    0.3542   -2.0737    1.5237 O   0  0  0  0  0  0  0  0  0  0  0  0
   -0.4479   -0.1143    0.5568 C   0  0  0  0  0  0  0  0  0  0  0  0
   -0.2656    1.1624    0.3301 C   0  0  0  0  0  0  0  0  0  0  0  0
   -1.5943   -0.7706    0.0712 N   0  0  0  0  0  0  0  0  0  0  0  0
   -2.6223   -0.1942   -0.6662 C   0  0  0  0  0  0  0  0  0  0  0  0
   -3.7721   -1.1177   -1.0845 C   0  0  0  0  0  0  0  0  0  0  0  0
   -2.7556    0.9876   -1.0489 O   0  0  0  0  0  0  0  0  0  0  0  0
    2.6903   -2.0798    2.1871 H   0  0  0  0  0  0  0  0  0  0  0  0
    2.2746   -1.0652    3.6074 H   0  0  0  0  0  0  0  0  0  0  0  0
    3.6827   -0.6273    2.4981 H   0  0  0  0  0  0  0  0  0  0  0  0
    1.9570    0.7648    1.7045 H   0  0  0  0  0  0  0  0  0  0  0  0
    0.6292    1.6849    0.7065 H   0  0  0  0  0  0  0  0  0  0  0  0
   -0.9590    1.7686   -0.2237 H   0  0  0  0  0  0  0  0  0  0  0  0
   -1.6359   -1.8173    0.3188 H   0  0  0  0  0  0  0  0  0  0  0  0
   -3.5096   -1.5727   -2.0412 H   0  0  0  0  0  0  0  0  0  0  0  0
   -4.7085   -0.5493   -1.1000 H   0  0  0  0  0  0  0  0  0  0  0  0
   -3.8594   -1.9296   -0.3190 H   0  0  0  0  0  0  0  0  0  0  0  0
  1  2  1  0
  1 11  1  0
  1 12  1  0
  1 13  1  0
  2  3  1  0
  2 14  1  0
  3  4  2  0
  3  5  1  0
  5  6  2  3
  5  7  1  0
  6 15  1  0
  6 16  1  0
  7  8  1  0
  7 17  1  0
  8  9  1  0
  8 10  2  0
  9 18  1  0
  9 19  1  0
  9 20  1  0
M  END

> <RosettaParamsInstructions>
M  ROOT 7
M  POLY_N_BB 7
M  POLY_CA_BB 5
M  POLY_C_BB 3
M  POLY_O_BB 4
M  POLY_IGNORE 1 10 9 14 11 12 13 18 19 20
M  POLY_UPPER 2
M  POLY_LOWER 8
M  POLY_CHG 0
M  POLY_PROPERTIES PROTEIN POLYMER ALPHA_AA ALIPHATIC
M  END

$$$$
DHA_new
     RDKit          3D

 20 19  0  0  0  0  0  0  0  0999 V2000
    2.7222   -1.0602    2.5129 C   0  0  0  0  0  0  0  0  0  0  0  0
    1.6746   -0.2483    1.9204 N   0  0  0  0  0  0  0  0  0  0  0  0
    0.6009   -0.8447    1.2604 C   0  0  0  0  0  0  0  0  0  0  0  0
    0.5501   -2.1068    1.1837 O   0  0  0  0  0  0  0  0  0  0  0  0
   -0.4988   -0.0977    0.6345 C   0  0  0  0  0  0  0  0  0  0  0  0
   -0.5085    1.2104    0.6769 C   0  0  0  0  0  0  0  0  0  0  0  0
   -1.5298   -0.8109   -0.0045 N   0  0  0  0  0  0  0  0  0  0  0  0
   -2.6267   -0.2333   -0.6350 C   0  0  0  0  0  0  0  0  0  0  0  0
   -3.6603   -1.1519   -1.2830 C   0  0  0  0  0  0  0  0  0  0  0  0
   -2.9049    0.9768   -0.7557 O   0  0  0  0  0  0  0  0  0  0  0  0
    2.5965   -1.1068    3.6193 H   0  0  0  0  0  0  0  0  0  0  0  0
    3.7208   -0.5897    2.2809 H   0  0  0  0  0  0  0  0  0  0  0  0
    2.6992   -2.0470    2.0323 H   0  0  0  0  0  0  0  0  0  0  0  0
    1.7781    0.7692    2.0195 H   0  0  0  0  0  0  0  0  0  0  0  0
    0.3178    1.7262    1.1870 H   0  0  0  0  0  0  0  0  0  0  0  0
   -1.2438    1.8655    0.2642 H   0  0  0  0  0  0  0  0  0  0  0  0
   -1.4857   -1.8838   -0.0177 H   0  0  0  0  0  0  0  0  0  0  0  0
   -4.4914   -1.1819   -0.5354 H   0  0  0  0  0  0  0  0  0  0  0  0
   -4.0667   -0.6853   -2.1945 H   0  0  0  0  0  0  0  0  0  0  0  0
   -3.2499   -2.1517   -1.4254 H   0  0  0  0  0  0  0  0  0  0  0  0
  1  2  1  0
  1 11  1  0
  1 12  1  0
  1 13  1  0
  2  3  1  0
  2 14  1  0
  3  4  2  0
  3  5  1  0
  5  6  2  3
  5  7  1  0
  6 15  1  0
  6 16  1  0
  7  8  1  0
  7 17  1  0
  8  9  1  0
  8 10  2  0
  9 18  1  0
  9 19  1  0
  9 20  1  0
M  END

> <RosettaParamsInstructions>
M  ROOT 7
M  POLY_N_BB 7
M  POLY_CA_BB 5
M  POLY_C_BB 3
M  POLY_O_BB 4
M  POLY_IGNORE 1 10 9 14 11 12 13 18 19 20
M  POLY_UPPER 2
M  POLY_LOWER 8
M  POLY_CHG 0
M  POLY_PROPERTIES PROTEIN POLYMER ALPHA_AA ALIPHATIC
M  END

$$$$
DHA_new
     RDKit          3D

 20 19  0  0  0  0  0  0  0  0999 V2000
    2.6980   -1.0537    2.5405 C   0  0  0  0  0  0  0  0  0  0  0  0
    1.6910   -0.2503    1.8405 N   0  0  0  0  0  0  0  0  0  0  0  0
    0.5570   -0.8405    1.2829 C   0  0  0  0  0  0  0  0  0  0  0  0
    0.4101   -2.0785    1.3898 O   0  0  0  0  0  0  0  0  0  0  0  0
   -0.4700   -0.0692    0.5764 C   0  0  0  0  0  0  0  0  0  0  0  0
   -0.3336    1.2228    0.4551 C   0  0  0  0  0  0  0  0  0  0  0  0
   -1.5651   -0.7629    0.0569 N   0  0  0  0  0  0  0  0  0  0  0  0
   -2.6346   -0.2075   -0.6405 C   0  0  0  0  0  0  0  0  0  0  0  0
   -3.7203   -1.1547   -1.1155 C   0  0  0  0  0  0  0  0  0  0  0  0
   -2.8347    0.9770   -0.9377 O   0  0  0  0  0  0  0  0  0  0  0  0
    3.7017   -0.8916    2.0897 H   0  0  0  0  0  0  0  0  0  0  0  0
    2.4344   -2.1324    2.4580 H   0  0  0  0  0  0  0  0  0  0  0  0
    2.7161   -0.7966    3.6038 H   0  0  0  0  0  0  0  0  0  0  0  0
    1.8795    0.7509    1.7939 H   0  0  0  0  0  0  0  0  0  0  0  0
    0.5196    1.7759    0.8578 H   0  0  0  0  0  0  0  0  0  0  0  0
   -1.0728    1.8050   -0.0576 H   0  0  0  0  0  0  0  0  0  0  0  0
   -1.5675   -1.8117    0.2174 H   0  0  0  0  0  0  0  0  0  0  0  0
   -3.5629   -2.1651   -0.7493 H   0  0  0  0  0  0  0  0  0  0  0  0
   -4.6939   -0.8001   -0.7037 H   0  0  0  0  0  0  0  0  0  0  0  0
   -3.7585   -1.1688   -2.2176 H   0  0  0  0  0  0  0  0  0  0  0  0
  1  2  1  0
  1 11  1  0
  1 12  1  0
  1 13  1  0
  2  3  1  0
  2 14  1  0
  3  4  2  0
  3  5  1  0
  5  6  2  3
  5  7  1  0
  6 15  1  0
  6 16  1  0
  7  8  1  0
  7 17  1  0
  8  9  1  0
  8 10  2  0
  9 18  1  0
  9 19  1  0
  9 20  1  0
M  END

> <RosettaParamsInstructions>
M  ROOT 7
M  POLY_N_BB 7
M  POLY_CA_BB 5
M  POLY_C_BB 3
M  POLY_O_BB 4
M  POLY_IGNORE 1 10 9 14 11 12 13 18 19 20
M  POLY_UPPER 2
M  POLY_LOWER 8
M  POLY_CHG 0
M  POLY_PROPERTIES PROTEIN POLYMER ALPHA_AA ALIPHATIC
M  END

$$$$
DHA_new
     RDKit          3D

 20 19  0  0  0  0  0  0  0  0999 V2000
    2.6779   -1.0563    2.5816 C   0  0  0  0  0  0  0  0  0  0  0  0
    1.6787   -0.2704    1.8392 N   0  0  0  0  0  0  0  0  0  0  0  0
    0.5344   -0.8398    1.2947 C   0  0  0  0  0  0  0  0  0  0  0  0
    0.3592   -2.0731    1.4498 O   0  0  0  0  0  0  0  0  0  0  0  0
   -0.4575   -0.0716    0.5602 C   0  0  0  0  0  0  0  0  0  0  0  0
   -0.2884    1.2229    0.3888 C   0  0  0  0  0  0  0  0  0  0  0  0
   -1.5706   -0.7922    0.0652 N   0  0  0  0  0  0  0  0  0  0  0  0
   -2.6282   -0.2420   -0.6619 C   0  0  0  0  0  0  0  0  0  0  0  0
   -3.7582   -1.1351   -1.1308 C   0  0  0  0  0  0  0  0  0  0  0  0
   -2.7501    0.9467   -0.9799 O   0  0  0  0  0  0  0  0  0  0  0  0
    2.2707   -2.0724    2.6827 H   0  0  0  0  0  0  0  0  0  0  0  0
    2.8296   -0.5946    3.5698 H   0  0  0  0  0  0  0  0  0  0  0  0
    3.6522   -1.0579    2.0693 H   0  0  0  0  0  0  0  0  0  0  0  0
    1.8989    0.7288    1.7589 H   0  0  0  0  0  0  0  0  0  0  0  0
    0.5910    1.7225    0.7944 H   0  0  0  0  0  0  0  0  0  0  0  0
   -0.9768    1.8500   -0.1405 H   0  0  0  0  0  0  0  0  0  0  0  0
   -1.6184   -1.8419    0.2559 H   0  0  0  0  0  0  0  0  0  0  0  0
   -3.4716   -1.5681   -2.1101 H   0  0  0  0  0  0  0  0  0  0  0  0
   -4.7098   -0.5826   -1.1735 H   0  0  0  0  0  0  0  0  0  0  0  0
   -3.8693   -1.9248   -0.3730 H   0  0  0  0  0  0  0  0  0  0  0  0
  1  2  1  0
  1 11  1  0
  1 12  1  0
  1 13  1  0
  2  3  1  0
  2 14  1  0
  3  4  2  0
  3  5  1  0
  5  6  2  3
  5  7  1  0
  6 15  1  0
  6 16  1  0
  7  8  1  0
  7 17  1  0
  8  9  1  0
  8 10  2  0
  9 18  1  0
  9 19  1  0
  9 20  1  0
M  END

> <RosettaParamsInstructions>
M  ROOT 7
M  POLY_N_BB 7
M  POLY_CA_BB 5
M  POLY_C_BB 3
M  POLY_O_BB 4
M  POLY_IGNORE 1 10 9 14 11 12 13 18 19 20
M  POLY_UPPER 2
M  POLY_LOWER 8
M  POLY_CHG 0
M  POLY_PROPERTIES PROTEIN POLYMER ALPHA_AA ALIPHATIC
M  END

$$$$
DHA_new
     RDKit          3D

 20 19  0  0  0  0  0  0  0  0999 V2000
    2.6679   -1.0723    2.6034 C   0  0  0  0  0  0  0  0  0  0  0  0
    1.6803   -0.2324    1.8689 N   0  0  0  0  0  0  0  0  0  0  0  0
    0.5538   -0.8268    1.3136 C   0  0  0  0  0  0  0  0  0  0  0  0
    0.3658   -2.0787    1.4306 O   0  0  0  0  0  0  0  0  0  0  0  0
   -0.4550   -0.0613    0.5801 C   0  0  0  0  0  0  0  0  0  0  0  0
   -0.3045    1.2297    0.4339 C   0  0  0  0  0  0  0  0  0  0  0  0
   -1.5841   -0.7572    0.0417 N   0  0  0  0  0  0  0  0  0  0  0  0
   -2.6283   -0.2271   -0.6697 C   0  0  0  0  0  0  0  0  0  0  0  0
   -3.7173   -1.1693   -1.1397 C   0  0  0  0  0  0  0  0  0  0  0  0
   -2.7656    0.9730   -0.9690 O   0  0  0  0  0  0  0  0  0  0  0  0
    2.2444   -1.2027    3.6104 H   0  0  0  0  0  0  0  0  0  0  0  0
    2.7100   -2.0122    2.0109 H   0  0  0  0  0  0  0  0  0  0  0  0
    3.6471   -0.5722    2.5802 H   0  0  0  0  0  0  0  0  0  0  0  0
    1.8853    0.7707    1.8071 H   0  0  0  0  0  0  0  0  0  0  0  0
   -1.0204    1.8457   -0.0998 H   0  0  0  0  0  0  0  0  0  0  0  0
    0.5735    1.7166    0.8625 H   0  0  0  0  0  0  0  0  0  0  0  0
   -1.5784   -1.8004    0.2348 H   0  0  0  0  0  0  0  0  0  0  0  0
   -3.2380   -2.1357   -1.3684 H   0  0  0  0  0  0  0  0  0  0  0  0
   -4.4801   -1.2648   -0.3410 H   0  0  0  0  0  0  0  0  0  0  0  0
   -4.1629   -0.7748   -2.0497 H   0  0  0  0  0  0  0  0  0  0  0  0
  1  2  1  0
  1 11  1  0
  1 12  1  0
  1 13  1  0
  2  3  1  0
  2 14  1  0
  3  4  2  0
  3  5  1  0
  5  6  2  3
  5  7  1  0
  6 15  1  0
  6 16  1  0
  7  8  1  0
  7 17  1  0
  8  9  1  0
  8 10  2  0
  9 18  1  0
  9 19  1  0
  9 20  1  0
M  END

> <RosettaParamsInstructions>
M  ROOT 7
M  POLY_N_BB 7
M  POLY_CA_BB 5
M  POLY_C_BB 3
M  POLY_O_BB 4
M  POLY_IGNORE 1 10 9 14 11 12 13 18 19 20
M  POLY_UPPER 2
M  POLY_LOWER 8
M  POLY_CHG 0
M  POLY_PROPERTIES PROTEIN POLYMER ALPHA_AA ALIPHATIC
M  END

$$$$
DHA_new
     RDKit          3D

 20 19  0  0  0  0  0  0  0  0999 V2000
    2.6416   -1.0918    2.5745 C   0  0  0  0  0  0  0  0  0  0  0  0
    1.6992   -0.2277    1.8650 N   0  0  0  0  0  0  0  0  0  0  0  0
    0.5708   -0.8337    1.3126 C   0  0  0  0  0  0  0  0  0  0  0  0
    0.3659   -2.0846    1.4190 O   0  0  0  0  0  0  0  0  0  0  0  0
   -0.4277   -0.0616    0.5869 C   0  0  0  0  0  0  0  0  0  0  0  0
   -0.2869    1.2384    0.4341 C   0  0  0  0  0  0  0  0  0  0  0  0
   -1.5608   -0.7470    0.0462 N   0  0  0  0  0  0  0  0  0  0  0  0
   -2.6264   -0.2184   -0.6749 C   0  0  0  0  0  0  0  0  0  0  0  0
   -3.7063   -1.1615   -1.1377 C   0  0  0  0  0  0  0  0  0  0  0  0
   -2.8160    0.9791   -1.0030 O   0  0  0  0  0  0  0  0  0  0  0  0
    2.1465   -2.0253    2.9065 H   0  0  0  0  0  0  0  0  0  0  0  0
    3.0445   -0.5259    3.4590 H   0  0  0  0  0  0  0  0  0  0  0  0
    3.4811   -1.3193    1.9057 H   0  0  0  0  0  0  0  0  0  0  0  0
    1.8578    0.7892    1.7739 H   0  0  0  0  0  0  0  0  0  0  0  0
   -1.0105    1.8456   -0.1004 H   0  0  0  0  0  0  0  0  0  0  0  0
    0.5512    1.7929    0.8254 H   0  0  0  0  0  0  0  0  0  0  0  0
   -1.5785   -1.8003    0.2265 H   0  0  0  0  0  0  0  0  0  0  0  0
   -3.5696   -1.3946   -2.1980 H   0  0  0  0  0  0  0  0  0  0  0  0
   -4.6995   -0.7100   -0.9573 H   0  0  0  0  0  0  0  0  0  0  0  0
   -3.6828   -2.0957   -0.5231 H   0  0  0  0  0  0  0  0  0  0  0  0
  1  2  1  0
  1 11  1  0
  1 12  1  0
  1 13  1  0
  2  3  1  0
  2 14  1  0
  3  4  2  0
  3  5  1  0
  5  6  2  3
  5  7  1  0
  6 15  1  0
  6 16  1  0
  7  8  1  0
  7 17  1  0
  8  9  1  0
  8 10  2  0
  9 18  1  0
  9 19  1  0
  9 20  1  0
M  END

> <RosettaParamsInstructions>
M  ROOT 7
M  POLY_N_BB 7
M  POLY_CA_BB 5
M  POLY_C_BB 3
M  POLY_O_BB 4
M  POLY_IGNORE 1 10 9 14 11 12 13 18 19 20
M  POLY_UPPER 2
M  POLY_LOWER 8
M  POLY_CHG 0
M  POLY_PROPERTIES PROTEIN POLYMER ALPHA_AA ALIPHATIC
M  END

$$$$
DHA_new
     RDKit          3D

 20 19  0  0  0  0  0  0  0  0999 V2000
    2.6913   -1.0392    2.5853 C   0  0  0  0  0  0  0  0  0  0  0  0
    1.6823   -0.2304    1.8605 N   0  0  0  0  0  0  0  0  0  0  0  0
    0.5601   -0.8593    1.3018 C   0  0  0  0  0  0  0  0  0  0  0  0
    0.4275   -2.1073    1.4256 O   0  0  0  0  0  0  0  0  0  0  0  0
   -0.4526   -0.0710    0.5781 C   0  0  0  0  0  0  0  0  0  0  0  0
   -0.3394    1.2242    0.4353 C   0  0  0  0  0  0  0  0  0  0  0  0
   -1.5399   -0.7747    0.0520 N   0  0  0  0  0  0  0  0  0  0  0  0
   -2.6095   -0.2549   -0.6617 C   0  0  0  0  0  0  0  0  0  0  0  0
   -3.7259   -1.1533   -1.1735 C   0  0  0  0  0  0  0  0  0  0  0  0
   -2.7623    0.9474   -0.9462 O   0  0  0  0  0  0  0  0  0  0  0  0
    3.5105   -0.4139    2.9503 H   0  0  0  0  0  0  0  0  0  0  0  0
    2.1329   -1.5303    3.4093 H   0  0  0  0  0  0  0  0  0  0  0  0
    3.0135   -1.8512    1.8936 H   0  0  0  0  0  0  0  0  0  0  0  0
    1.8527    0.7777    1.7978 H   0  0  0  0  0  0  0  0  0  0  0  0
   -1.0323    1.8552   -0.0747 H   0  0  0  0  0  0  0  0  0  0  0  0
    0.5152    1.7313    0.8563 H   0  0  0  0  0  0  0  0  0  0  0  0
   -1.5630   -1.8349    0.2098 H   0  0  0  0  0  0  0  0  0  0  0  0
   -4.6874   -0.6233   -1.0139 H   0  0  0  0  0  0  0  0  0  0  0  0
   -3.7432   -2.0587   -0.5159 H   0  0  0  0  0  0  0  0  0  0  0  0
   -3.5371   -1.3856   -2.2287 H   0  0  0  0  0  0  0  0  0  0  0  0
  1  2  1  0
  1 11  1  0
  1 12  1  0
  1 13  1  0
  2  3  1  0
  2 14  1  0
  3  4  2  0
  3  5  1  0
  5  6  2  3
  5  7  1  0
  6 15  1  0
  6 16  1  0
  7  8  1  0
  7 17  1  0
  8  9  1  0
  8 10  2  0
  9 18  1  0
  9 19  1  0
  9 20  1  0
M  END

> <RosettaParamsInstructions>
M  ROOT 7
M  POLY_N_BB 7
M  POLY_CA_BB 5
M  POLY_C_BB 3
M  POLY_O_BB 4
M  POLY_IGNORE 1 10 9 14 11 12 13 18 19 20
M  POLY_UPPER 2
M  POLY_LOWER 8
M  POLY_CHG 0
M  POLY_PROPERTIES PROTEIN POLYMER ALPHA_AA ALIPHATIC
M  END

$$$$
DHA_new
     RDKit          3D

 20 19  0  0  0  0  0  0  0  0999 V2000
    2.6611   -1.0565    2.5809 C   0  0  0  0  0  0  0  0  0  0  0  0
    1.6960   -0.2407    1.8075 N   0  0  0  0  0  0  0  0  0  0  0  0
    0.5441   -0.8686    1.3224 C   0  0  0  0  0  0  0  0  0  0  0  0
    0.3381   -2.0969    1.5410 O   0  0  0  0  0  0  0  0  0  0  0  0
   -0.4571   -0.0994    0.5411 C   0  0  0  0  0  0  0  0  0  0  0  0
   -0.2552    1.1675    0.3097 C   0  0  0  0  0  0  0  0  0  0  0  0
   -1.5985   -0.7634    0.0719 N   0  0  0  0  0  0  0  0  0  0  0  0
   -2.6254   -0.2020   -0.6672 C   0  0  0  0  0  0  0  0  0  0  0  0
   -3.7644   -1.1205   -1.0654 C   0  0  0  0  0  0  0  0  0  0  0  0
   -2.7296    0.9743   -1.0483 O   0  0  0  0  0  0  0  0  0  0  0  0
    2.8129   -2.0259    2.0729 H   0  0  0  0  0  0  0  0  0  0  0  0
    2.2061   -1.1674    3.5855 H   0  0  0  0  0  0  0  0  0  0  0  0
    3.6354   -0.5623    2.6524 H   0  0  0  0  0  0  0  0  0  0  0  0
    1.9441    0.7414    1.6803 H   0  0  0  0  0  0  0  0  0  0  0  0
    0.6295    1.7187    0.6634 H   0  0  0  0  0  0  0  0  0  0  0  0
   -0.9425    1.7588   -0.2440 H   0  0  0  0  0  0  0  0  0  0  0  0
   -1.6521   -1.8048    0.3262 H   0  0  0  0  0  0  0  0  0  0  0  0
   -4.4957   -1.0489   -0.2424 H   0  0  0  0  0  0  0  0  0  0  0  0
   -3.4034   -2.1576   -1.1048 H   0  0  0  0  0  0  0  0  0  0  0  0
   -4.1499   -0.7980   -2.0422 H   0  0  0  0  0  0  0  0  0  0  0  0
  1  2  1  0
  1 11  1  0
  1 12  1  0
  1 13  1  0
  2  3  1  0
  2 14  1  0
  3  4  2  0
  3  5  1  0
  5  6  2  3
  5  7  1  0
  6 15  1  0
  6 16  1  0
  7  8  1  0
  7 17  1  0
  8  9  1  0
  8 10  2  0
  9 18  1  0
  9 19  1  0
  9 20  1  0
M  END

> <RosettaParamsInstructions>
M  ROOT 7
M  POLY_N_BB 7
M  POLY_CA_BB 5
M  POLY_C_BB 3
M  POLY_O_BB 4
M  POLY_IGNORE 1 10 9 14 11 12 13 18 19 20
M  POLY_UPPER 2
M  POLY_LOWER 8
M  POLY_CHG 0
M  POLY_PROPERTIES PROTEIN POLYMER ALPHA_AA ALIPHATIC
M  END

$$$$
DHA_new
     RDKit          3D

 20 19  0  0  0  0  0  0  0  0999 V2000
    2.6870   -1.0617    2.5603 C   0  0  0  0  0  0  0  0  0  0  0  0
    1.6953   -0.2067    1.8575 N   0  0  0  0  0  0  0  0  0  0  0  0
    0.5773   -0.8359    1.2972 C   0  0  0  0  0  0  0  0  0  0  0  0
    0.4288   -2.0806    1.3918 O   0  0  0  0  0  0  0  0  0  0  0  0
   -0.4730   -0.0745    0.5738 C   0  0  0  0  0  0  0  0  0  0  0  0
   -0.3090    1.2316    0.4793 C   0  0  0  0  0  0  0  0  0  0  0  0
   -1.5717   -0.7744    0.0350 N   0  0  0  0  0  0  0  0  0  0  0  0
   -2.6339   -0.2189   -0.6652 C   0  0  0  0  0  0  0  0  0  0  0  0
   -3.7152   -1.1805   -1.1558 C   0  0  0  0  0  0  0  0  0  0  0  0
   -2.8256    0.9920   -0.9533 O   0  0  0  0  0  0  0  0  0  0  0  0
    2.0552   -1.7788    3.1382 H   0  0  0  0  0  0  0  0  0  0  0  0
    3.2420   -0.4726    3.3115 H   0  0  0  0  0  0  0  0  0  0  0  0
    3.3165   -1.5502    1.8112 H   0  0  0  0  0  0  0  0  0  0  0  0
    1.9266    0.8026    1.8454 H   0  0  0  0  0  0  0  0  0  0  0  0
   -1.0547    1.8127   -0.0401 H   0  0  0  0  0  0  0  0  0  0  0  0
    0.5638    1.7499    0.9128 H   0  0  0  0  0  0  0  0  0  0  0  0
   -1.5697   -1.8282    0.1897 H   0  0  0  0  0  0  0  0  0  0  0  0
   -3.2794   -2.1739   -1.3258 H   0  0  0  0  0  0  0  0  0  0  0  0
   -4.1272   -0.7877   -2.1011 H   0  0  0  0  0  0  0  0  0  0  0  0
   -4.5396   -1.2164   -0.4215 H   0  0  0  0  0  0  0  0  0  0  0  0
  1  2  1  0
  1 11  1  0
  1 12  1  0
  1 13  1  0
  2  3  1  0
  2 14  1  0
  3  4  2  0
  3  5  1  0
  5  6  2  3
  5  7  1  0
  6 15  1  0
  6 16  1  0
  7  8  1  0
  7 17  1  0
  8  9  1  0
  8 10  2  0
  9 18  1  0
  9 19  1  0
  9 20  1  0
M  END

> <RosettaParamsInstructions>
M  ROOT 7
M  POLY_N_BB 7
M  POLY_CA_BB 5
M  POLY_C_BB 3
M  POLY_O_BB 4
M  POLY_IGNORE 1 10 9 14 11 12 13 18 19 20
M  POLY_UPPER 2
M  POLY_LOWER 8
M  POLY_CHG 0
M  POLY_PROPERTIES PROTEIN POLYMER ALPHA_AA ALIPHATIC
M  END

$$$$
DHA_new
     RDKit          3D

 20 19  0  0  0  0  0  0  0  0999 V2000
    2.6714   -1.0675    2.5820 C   0  0  0  0  0  0  0  0  0  0  0  0
    1.6923   -0.2249    1.8670 N   0  0  0  0  0  0  0  0  0  0  0  0
    0.5632   -0.8088    1.3027 C   0  0  0  0  0  0  0  0  0  0  0  0
    0.4073   -2.0543    1.4196 O   0  0  0  0  0  0  0  0  0  0  0  0
   -0.4480   -0.0611    0.5848 C   0  0  0  0  0  0  0  0  0  0  0  0
   -0.3174    1.2296    0.4455 C   0  0  0  0  0  0  0  0  0  0  0  0
   -1.5519   -0.7887    0.0593 N   0  0  0  0  0  0  0  0  0  0  0  0
   -2.6257   -0.2654   -0.6578 C   0  0  0  0  0  0  0  0  0  0  0  0
   -3.7405   -1.1580   -1.1621 C   0  0  0  0  0  0  0  0  0  0  0  0
   -2.7569    0.9374   -0.9359 O   0  0  0  0  0  0  0  0  0  0  0  0
    3.6150   -0.9739    2.0333 H   0  0  0  0  0  0  0  0  0  0  0  0
    2.8059   -0.7190    3.6102 H   0  0  0  0  0  0  0  0  0  0  0  0
    2.3045   -2.1079    2.6122 H   0  0  0  0  0  0  0  0  0  0  0  0
    1.8670    0.7983    1.7983 H   0  0  0  0  0  0  0  0  0  0  0  0
   -1.0390    1.8526   -0.0818 H   0  0  0  0  0  0  0  0  0  0  0  0
    0.5653    1.7254    0.8800 H   0  0  0  0  0  0  0  0  0  0  0  0
   -1.5720   -1.8460    0.2244 H   0  0  0  0  0  0  0  0  0  0  0  0
   -4.6900   -0.5951   -1.2424 H   0  0  0  0  0  0  0  0  0  0  0  0
   -3.8904   -1.9894   -0.4344 H   0  0  0  0  0  0  0  0  0  0  0  0
   -3.4667   -1.5355   -2.1639 H   0  0  0  0  0  0  0  0  0  0  0  0
  1  2  1  0
  1 11  1  0
  1 12  1  0
  1 13  1  0
  2  3  1  0
  2 14  1  0
  3  4  2  0
  3  5  1  0
  5  6  2  3
  5  7  1  0
  6 15  1  0
  6 16  1  0
  7  8  1  0
  7 17  1  0
  8  9  1  0
  8 10  2  0
  9 18  1  0
  9 19  1  0
  9 20  1  0
M  END

> <RosettaParamsInstructions>
M  ROOT 7
M  POLY_N_BB 7
M  POLY_CA_BB 5
M  POLY_C_BB 3
M  POLY_O_BB 4
M  POLY_IGNORE 1 10 9 14 11 12 13 18 19 20
M  POLY_UPPER 2
M  POLY_LOWER 8
M  POLY_CHG 0
M  POLY_PROPERTIES PROTEIN POLYMER ALPHA_AA ALIPHATIC
M  END

$$$$
DHA_new
     RDKit          3D

 20 19  0  0  0  0  0  0  0  0999 V2000
    2.6728   -1.0496    2.5573 C   0  0  0  0  0  0  0  0  0  0  0  0
    1.6735   -0.2510    1.8464 N   0  0  0  0  0  0  0  0  0  0  0  0
    0.5364   -0.8325    1.2808 C   0  0  0  0  0  0  0  0  0  0  0  0
    0.3842   -2.0748    1.3952 O   0  0  0  0  0  0  0  0  0  0  0  0
   -0.4631   -0.0548    0.5731 C   0  0  0  0  0  0  0  0  0  0  0  0
   -0.3031    1.2338    0.4557 C   0  0  0  0  0  0  0  0  0  0  0  0
   -1.5752   -0.7561    0.0416 N   0  0  0  0  0  0  0  0  0  0  0  0
   -2.6506   -0.1984   -0.6742 C   0  0  0  0  0  0  0  0  0  0  0  0
   -3.7267   -1.1805   -1.1391 C   0  0  0  0  0  0  0  0  0  0  0  0
   -2.7985    1.0077   -0.9572 O   0  0  0  0  0  0  0  0  0  0  0  0
    3.4381   -1.4515    1.8902 H   0  0  0  0  0  0  0  0  0  0  0  0
    3.1139   -0.4485    3.3793 H   0  0  0  0  0  0  0  0  0  0  0  0
    2.1490   -1.9242    3.0172 H   0  0  0  0  0  0  0  0  0  0  0  0
    1.8642    0.7475    1.7942 H   0  0  0  0  0  0  0  0  0  0  0  0
    0.5495    1.7704    0.8634 H   0  0  0  0  0  0  0  0  0  0  0  0
   -1.0308    1.8270   -0.0639 H   0  0  0  0  0  0  0  0  0  0  0  0
   -1.6119   -1.8302    0.1956 H   0  0  0  0  0  0  0  0  0  0  0  0
   -3.8874   -1.8534   -0.2804 H   0  0  0  0  0  0  0  0  0  0  0  0
   -3.3181   -1.7164   -2.0189 H   0  0  0  0  0  0  0  0  0  0  0  0
   -4.6226   -0.6167   -1.4154 H   0  0  0  0  0  0  0  0  0  0  0  0
  1  2  1  0
  1 11  1  0
  1 12  1  0
  1 13  1  0
  2  3  1  0
  2 14  1  0
  3  4  2  0
  3  5  1  0
  5  6  2  3
  5  7  1  0
  6 15  1  0
  6 16  1  0
  7  8  1  0
  7 17  1  0
  8  9  1  0
  8 10  2  0
  9 18  1  0
  9 19  1  0
  9 20  1  0
M  END

> <RosettaParamsInstructions>
M  ROOT 7
M  POLY_N_BB 7
M  POLY_CA_BB 5
M  POLY_C_BB 3
M  POLY_O_BB 4
M  POLY_IGNORE 1 10 9 14 11 12 13 18 19 20
M  POLY_UPPER 2
M  POLY_LOWER 8
M  POLY_CHG 0
M  POLY_PROPERTIES PROTEIN POLYMER ALPHA_AA ALIPHATIC
M  END

$$$$
DHA_new
     RDKit          3D

 20 19  0  0  0  0  0  0  0  0999 V2000
    2.6973   -1.0329    2.5817 C   0  0  0  0  0  0  0  0  0  0  0  0
    1.6792   -0.2701    1.8557 N   0  0  0  0  0  0  0  0  0  0  0  0
    0.5488   -0.8525    1.2973 C   0  0  0  0  0  0  0  0  0  0  0  0
    0.3887   -2.1074    1.4215 O   0  0  0  0  0  0  0  0  0  0  0  0
   -0.4559   -0.0791    0.5773 C   0  0  0  0  0  0  0  0  0  0  0  0
   -0.2849    1.2110    0.4534 C   0  0  0  0  0  0  0  0  0  0  0  0
   -1.5638   -0.7849    0.0535 N   0  0  0  0  0  0  0  0  0  0  0  0
   -2.6339   -0.2385   -0.6653 C   0  0  0  0  0  0  0  0  0  0  0  0
   -3.7536   -1.1305   -1.1637 C   0  0  0  0  0  0  0  0  0  0  0  0
   -2.7742    0.9707   -0.9567 O   0  0  0  0  0  0  0  0  0  0  0  0
    2.3080   -2.0676    2.6539 H   0  0  0  0  0  0  0  0  0  0  0  0
    3.6619   -1.0397    2.0797 H   0  0  0  0  0  0  0  0  0  0  0  0
    2.7861   -0.5789    3.5896 H   0  0  0  0  0  0  0  0  0  0  0  0
    1.8696    0.7373    1.7921 H   0  0  0  0  0  0  0  0  0  0  0  0
    0.5677    1.7582    0.8559 H   0  0  0  0  0  0  0  0  0  0  0  0
   -0.9866    1.8437   -0.0655 H   0  0  0  0  0  0  0  0  0  0  0  0
   -1.6252   -1.8505    0.2024 H   0  0  0  0  0  0  0  0  0  0  0  0
   -4.5076   -1.2644   -0.3653 H   0  0  0  0  0  0  0  0  0  0  0  0
   -3.3311   -2.1548   -1.3643 H   0  0  0  0  0  0  0  0  0  0  0  0
   -4.1969   -0.7214   -2.0924 H   0  0  0  0  0  0  0  0  0  0  0  0
  1  2  1  0
  1 11  1  0
  1 12  1  0
  1 13  1  0
  2  3  1  0
  2 14  1  0
  3  4  2  0
  3  5  1  0
  5  6  2  3
  5  7  1  0
  6 15  1  0
  6 16  1  0
  7  8  1  0
  7 17  1  0
  8  9  1  0
  8 10  2  0
  9 18  1  0
  9 19  1  0
  9 20  1  0
M  END

> <RosettaParamsInstructions>
M  ROOT 7
M  POLY_N_BB 7
M  POLY_CA_BB 5
M  POLY_C_BB 3
M  POLY_O_BB 4
M  POLY_IGNORE 1 10 9 14 11 12 13 18 19 20
M  POLY_UPPER 2
M  POLY_LOWER 8
M  POLY_CHG 0
M  POLY_PROPERTIES PROTEIN POLYMER ALPHA_AA ALIPHATIC
M  END

$$$$
DHA_new
     RDKit          3D

 20 19  0  0  0  0  0  0  0  0999 V2000
    2.6452   -1.0503    2.5957 C   0  0  0  0  0  0  0  0  0  0  0  0
    1.6802   -0.2158    1.8677 N   0  0  0  0  0  0  0  0  0  0  0  0
    0.5629   -0.8412    1.3278 C   0  0  0  0  0  0  0  0  0  0  0  0
    0.3782   -2.1037    1.4593 O   0  0  0  0  0  0  0  0  0  0  0  0
   -0.4666   -0.0895    0.5776 C   0  0  0  0  0  0  0  0  0  0  0  0
   -0.3301    1.2001    0.4127 C   0  0  0  0  0  0  0  0  0  0  0  0
   -1.5786   -0.7787    0.0530 N   0  0  0  0  0  0  0  0  0  0  0  0
   -2.6129   -0.2149   -0.6643 C   0  0  0  0  0  0  0  0  0  0  0  0
   -3.7248   -1.1400   -1.1438 C   0  0  0  0  0  0  0  0  0  0  0  0
   -2.7685    0.9804   -0.9835 O   0  0  0  0  0  0  0  0  0  0  0  0
    3.3854   -1.4129    1.8537 H   0  0  0  0  0  0  0  0  0  0  0  0
    3.1458   -0.4481    3.3755 H   0  0  0  0  0  0  0  0  0  0  0  0
    2.1392   -1.9320    3.0256 H   0  0  0  0  0  0  0  0  0  0  0  0
    1.8733    0.7878    1.7906 H   0  0  0  0  0  0  0  0  0  0  0  0
   -1.0175    1.8444   -0.1153 H   0  0  0  0  0  0  0  0  0  0  0  0
    0.5438    1.7150    0.8301 H   0  0  0  0  0  0  0  0  0  0  0  0
   -1.6202   -1.8357    0.2297 H   0  0  0  0  0  0  0  0  0  0  0  0
   -3.1954   -2.0873   -1.4466 H   0  0  0  0  0  0  0  0  0  0  0  0
   -4.4074   -1.3110   -0.2977 H   0  0  0  0  0  0  0  0  0  0  0  0
   -4.2384   -0.7187   -2.0070 H   0  0  0  0  0  0  0  0  0  0  0  0
  1  2  1  0
  1 11  1  0
  1 12  1  0
  1 13  1  0
  2  3  1  0
  2 14  1  0
  3  4  2  0
  3  5  1  0
  5  6  2  3
  5  7  1  0
  6 15  1  0
  6 16  1  0
  7  8  1  0
  7 17  1  0
  8  9  1  0
  8 10  2  0
  9 18  1  0
  9 19  1  0
  9 20  1  0
M  END

> <RosettaParamsInstructions>
M  ROOT 7
M  POLY_N_BB 7
M  POLY_CA_BB 5
M  POLY_C_BB 3
M  POLY_O_BB 4
M  POLY_IGNORE 1 10 9 14 11 12 13 18 19 20
M  POLY_UPPER 2
M  POLY_LOWER 8
M  POLY_CHG 0
M  POLY_PROPERTIES PROTEIN POLYMER ALPHA_AA ALIPHATIC
M  END

$$$$
DHA_new
     RDKit          3D

 20 19  0  0  0  0  0  0  0  0999 V2000
    2.6427   -1.0774    2.5826 C   0  0  0  0  0  0  0  0  0  0  0  0
    1.6884   -0.2047    1.8717 N   0  0  0  0  0  0  0  0  0  0  0  0
    0.5723   -0.8328    1.3191 C   0  0  0  0  0  0  0  0  0  0  0  0
    0.3793   -2.0830    1.4168 O   0  0  0  0  0  0  0  0  0  0  0  0
   -0.4559   -0.0638    0.5821 C   0  0  0  0  0  0  0  0  0  0  0  0
   -0.3466    1.2243    0.4288 C   0  0  0  0  0  0  0  0  0  0  0  0
   -1.5629   -0.7711    0.0484 N   0  0  0  0  0  0  0  0  0  0  0  0
   -2.6118   -0.2140   -0.6649 C   0  0  0  0  0  0  0  0  0  0  0  0
   -3.6935   -1.1844   -1.1391 C   0  0  0  0  0  0  0  0  0  0  0  0
   -2.7869    0.9878   -0.9716 O   0  0  0  0  0  0  0  0  0  0  0  0
    3.6051   -0.5095    2.6847 H   0  0  0  0  0  0  0  0  0  0  0  0
    2.2792   -1.3552    3.5760 H   0  0  0  0  0  0  0  0  0  0  0  0
    2.7681   -1.9663    1.9530 H   0  0  0  0  0  0  0  0  0  0  0  0
    1.8551    0.7971    1.8006 H   0  0  0  0  0  0  0  0  0  0  0  0
   -1.0567    1.8151   -0.0903 H   0  0  0  0  0  0  0  0  0  0  0  0
    0.5257    1.7373    0.8569 H   0  0  0  0  0  0  0  0  0  0  0  0
   -1.5923   -1.8265    0.2096 H   0  0  0  0  0  0  0  0  0  0  0  0
   -3.2501   -2.1747   -1.2668 H   0  0  0  0  0  0  0  0  0  0  0  0
   -4.4771   -1.1589   -0.3678 H   0  0  0  0  0  0  0  0  0  0  0  0
   -4.0886   -0.7915   -2.0888 H   0  0  0  0  0  0  0  0  0  0  0  0
  1  2  1  0
  1 11  1  0
  1 12  1  0
  1 13  1  0
  2  3  1  0
  2 14  1  0
  3  4  2  0
  3  5  1  0
  5  6  2  3
  5  7  1  0
  6 15  1  0
  6 16  1  0
  7  8  1  0
  7 17  1  0
  8  9  1  0
  8 10  2  0
  9 18  1  0
  9 19  1  0
  9 20  1  0
M  END

> <RosettaParamsInstructions>
M  ROOT 7
M  POLY_N_BB 7
M  POLY_CA_BB 5
M  POLY_C_BB 3
M  POLY_O_BB 4
M  POLY_IGNORE 1 10 9 14 11 12 13 18 19 20
M  POLY_UPPER 2
M  POLY_LOWER 8
M  POLY_CHG 0
M  POLY_PROPERTIES PROTEIN POLYMER ALPHA_AA ALIPHATIC
M  END

$$$$
DHA_new
     RDKit          3D

 20 19  0  0  0  0  0  0  0  0999 V2000
    2.6444   -1.0517    2.6397 C   0  0  0  0  0  0  0  0  0  0  0  0
    1.6873   -0.2465    1.8612 N   0  0  0  0  0  0  0  0  0  0  0  0
    0.5362   -0.8153    1.3245 C   0  0  0  0  0  0  0  0  0  0  0  0
    0.3269   -2.0375    1.5178 O   0  0  0  0  0  0  0  0  0  0  0  0
   -0.4493   -0.0667    0.5438 C   0  0  0  0  0  0  0  0  0  0  0  0
   -0.2465    1.2136    0.3316 C   0  0  0  0  0  0  0  0  0  0  0  0
   -1.5803   -0.7762    0.0557 N   0  0  0  0  0  0  0  0  0  0  0  0
   -2.6211   -0.2435   -0.7018 C   0  0  0  0  0  0  0  0  0  0  0  0
   -3.7675   -1.1472   -1.1486 C   0  0  0  0  0  0  0  0  0  0  0  0
   -2.7136    0.9365   -1.0636 O   0  0  0  0  0  0  0  0  0  0  0  0
    3.4993   -1.3481    2.0274 H   0  0  0  0  0  0  0  0  0  0  0  0
    2.9317   -0.4339    3.5187 H   0  0  0  0  0  0  0  0  0  0  0  0
    2.1224   -1.9624    3.0197 H   0  0  0  0  0  0  0  0  0  0  0  0
    1.9167    0.7554    1.7371 H   0  0  0  0  0  0  0  0  0  0  0  0
   -0.9369    1.8226   -0.2374 H   0  0  0  0  0  0  0  0  0  0  0  0
    0.6370    1.6861    0.7341 H   0  0  0  0  0  0  0  0  0  0  0  0
   -1.6235   -1.8177    0.3008 H   0  0  0  0  0  0  0  0  0  0  0  0
   -4.2090   -0.7671   -2.0837 H   0  0  0  0  0  0  0  0  0  0  0  0
   -3.3003   -2.1501   -1.3350 H   0  0  0  0  0  0  0  0  0  0  0  0
   -4.4604   -1.2024   -0.3010 H   0  0  0  0  0  0  0  0  0  0  0  0
  1  2  1  0
  1 11  1  0
  1 12  1  0
  1 13  1  0
  2  3  1  0
  2 14  1  0
  3  4  2  0
  3  5  1  0
  5  6  2  3
  5  7  1  0
  6 15  1  0
  6 16  1  0
  7  8  1  0
  7 17  1  0
  8  9  1  0
  8 10  2  0
  9 18  1  0
  9 19  1  0
  9 20  1  0
M  END

> <RosettaParamsInstructions>
M  ROOT 7
M  POLY_N_BB 7
M  POLY_CA_BB 5
M  POLY_C_BB 3
M  POLY_O_BB 4
M  POLY_IGNORE 1 10 9 14 11 12 13 18 19 20
M  POLY_UPPER 2
M  POLY_LOWER 8
M  POLY_CHG 0
M  POLY_PROPERTIES PROTEIN POLYMER ALPHA_AA ALIPHATIC
M  END

$$$$
DHA_new
     RDKit          3D

 20 19  0  0  0  0  0  0  0  0999 V2000
    2.7147   -1.0528    2.4929 C   0  0  0  0  0  0  0  0  0  0  0  0
    1.6908   -0.2217    1.8504 N   0  0  0  0  0  0  0  0  0  0  0  0
    0.5790   -0.8298    1.2679 C   0  0  0  0  0  0  0  0  0  0  0  0
    0.4532   -2.0916    1.2928 O   0  0  0  0  0  0  0  0  0  0  0  0
   -0.4739   -0.0643    0.6140 C   0  0  0  0  0  0  0  0  0  0  0  0
   -0.3694    1.2424    0.5736 C   0  0  0  0  0  0  0  0  0  0  0  0
   -1.5872   -0.7655    0.0378 N   0  0  0  0  0  0  0  0  0  0  0  0
   -2.6816   -0.2293   -0.6221 C   0  0  0  0  0  0  0  0  0  0  0  0
   -3.7520   -1.1423   -1.1580 C   0  0  0  0  0  0  0  0  0  0  0  0
   -2.8804    0.9805   -0.8266 O   0  0  0  0  0  0  0  0  0  0  0  0
    2.4254   -1.2290    3.5491 H   0  0  0  0  0  0  0  0  0  0  0  0
    2.7554   -2.0469    2.0113 H   0  0  0  0  0  0  0  0  0  0  0  0
    3.7137   -0.5852    2.4341 H   0  0  0  0  0  0  0  0  0  0  0  0
    1.8729    0.7871    1.8766 H   0  0  0  0  0  0  0  0  0  0  0  0
    0.4751    1.7431    1.0132 H   0  0  0  0  0  0  0  0  0  0  0  0
   -1.1042    1.8853    0.1091 H   0  0  0  0  0  0  0  0  0  0  0  0
   -1.5410   -1.8284    0.1448 H   0  0  0  0  0  0  0  0  0  0  0  0
   -4.5753   -1.2709   -0.4531 H   0  0  0  0  0  0  0  0  0  0  0  0
   -4.0311   -0.7785   -2.1534 H   0  0  0  0  0  0  0  0  0  0  0  0
   -3.2905   -2.1544   -1.3137 H   0  0  0  0  0  0  0  0  0  0  0  0
  1  2  1  0
  1 11  1  0
  1 12  1  0
  1 13  1  0
  2  3  1  0
  2 14  1  0
  3  4  2  0
  3  5  1  0
  5  6  2  3
  5  7  1  0
  6 15  1  0
  6 16  1  0
  7  8  1  0
  7 17  1  0
  8  9  1  0
  8 10  2  0
  9 18  1  0
  9 19  1  0
  9 20  1  0
M  END

> <RosettaParamsInstructions>
M  ROOT 7
M  POLY_N_BB 7
M  POLY_CA_BB 5
M  POLY_C_BB 3
M  POLY_O_BB 4
M  POLY_IGNORE 1 10 9 14 11 12 13 18 19 20
M  POLY_UPPER 2
M  POLY_LOWER 8
M  POLY_CHG 0
M  POLY_PROPERTIES PROTEIN POLYMER ALPHA_AA ALIPHATIC
M  END

$$$$
DHA_new
     RDKit          3D

 20 19  0  0  0  0  0  0  0  0999 V2000
    2.6057   -1.0653    2.6642 C   0  0  0  0  0  0  0  0  0  0  0  0
    1.6934   -0.2133    1.8734 N   0  0  0  0  0  0  0  0  0  0  0  0
    0.5476   -0.8019    1.3430 C   0  0  0  0  0  0  0  0  0  0  0  0
    0.3333   -2.0249    1.5541 O   0  0  0  0  0  0  0  0  0  0  0  0
   -0.4176   -0.0645    0.5521 C   0  0  0  0  0  0  0  0  0  0  0  0
   -0.2100    1.2062    0.3236 C   0  0  0  0  0  0  0  0  0  0  0  0
   -1.5595   -0.7625    0.0545 N   0  0  0  0  0  0  0  0  0  0  0  0
   -2.6079   -0.2748   -0.7171 C   0  0  0  0  0  0  0  0  0  0  0  0
   -3.7533   -1.1575   -1.1654 C   0  0  0  0  0  0  0  0  0  0  0  0
   -2.7431    0.9045   -1.1280 O   0  0  0  0  0  0  0  0  0  0  0  0
    3.3022   -0.4316    3.2168 H   0  0  0  0  0  0  0  0  0  0  0  0
    2.0177   -1.6375    3.4056 H   0  0  0  0  0  0  0  0  0  0  0  0
    3.1576   -1.6973    1.9620 H   0  0  0  0  0  0  0  0  0  0  0  0
    1.9411    0.7866    1.7447 H   0  0  0  0  0  0  0  0  0  0  0  0
    0.6567    1.6982    0.7118 H   0  0  0  0  0  0  0  0  0  0  0  0
   -0.9012    1.8238   -0.2677 H   0  0  0  0  0  0  0  0  0  0  0  0
   -1.6010   -1.7936    0.3169 H   0  0  0  0  0  0  0  0  0  0  0  0
   -3.9167   -1.0972   -2.2353 H   0  0  0  0  0  0  0  0  0  0  0  0
   -3.5093   -2.2025   -0.8999 H   0  0  0  0  0  0  0  0  0  0  0  0
   -4.6422   -0.8471   -0.5684 H   0  0  0  0  0  0  0  0  0  0  0  0
  1  2  1  0
  1 11  1  0
  1 12  1  0
  1 13  1  0
  2  3  1  0
  2 14  1  0
  3  4  2  0
  3  5  1  0
  5  6  2  3
  5  7  1  0
  6 15  1  0
  6 16  1  0
  7  8  1  0
  7 17  1  0
  8  9  1  0
  8 10  2  0
  9 18  1  0
  9 19  1  0
  9 20  1  0
M  END

> <RosettaParamsInstructions>
M  ROOT 7
M  POLY_N_BB 7
M  POLY_CA_BB 5
M  POLY_C_BB 3
M  POLY_O_BB 4
M  POLY_IGNORE 1 10 9 14 11 12 13 18 19 20
M  POLY_UPPER 2
M  POLY_LOWER 8
M  POLY_CHG 0
M  POLY_PROPERTIES PROTEIN POLYMER ALPHA_AA ALIPHATIC
M  END

$$$$
DHA_new
     RDKit          3D

 20 19  0  0  0  0  0  0  0  0999 V2000
    2.6845   -1.0546    2.5837 C   0  0  0  0  0  0  0  0  0  0  0  0
    1.6850   -0.2634    1.8675 N   0  0  0  0  0  0  0  0  0  0  0  0
    0.5407   -0.8779    1.3034 C   0  0  0  0  0  0  0  0  0  0  0  0
    0.3574   -2.1163    1.4048 O   0  0  0  0  0  0  0  0  0  0  0  0
   -0.4601   -0.0717    0.5839 C   0  0  0  0  0  0  0  0  0  0  0  0
   -0.3340    1.2087    0.4421 C   0  0  0  0  0  0  0  0  0  0  0  0
   -1.5687   -0.7738    0.0552 N   0  0  0  0  0  0  0  0  0  0  0  0
   -2.6373   -0.2241   -0.6607 C   0  0  0  0  0  0  0  0  0  0  0  0
   -3.7339   -1.1429   -1.1458 C   0  0  0  0  0  0  0  0  0  0  0  0
   -2.8003    0.9707   -0.9568 O   0  0  0  0  0  0  0  0  0  0  0  0
    3.7011   -0.7204    2.2640 H   0  0  0  0  0  0  0  0  0  0  0  0
    2.5658   -0.8202    3.6593 H   0  0  0  0  0  0  0  0  0  0  0  0
    2.6150   -2.1216    2.3672 H   0  0  0  0  0  0  0  0  0  0  0  0
    1.9025    0.7498    1.8239 H   0  0  0  0  0  0  0  0  0  0  0  0
    0.5235    1.7314    0.8544 H   0  0  0  0  0  0  0  0  0  0  0  0
   -1.0379    1.8109   -0.0699 H   0  0  0  0  0  0  0  0  0  0  0  0
   -1.6321   -1.8389    0.1974 H   0  0  0  0  0  0  0  0  0  0  0  0
   -4.6904   -0.9109   -0.6303 H   0  0  0  0  0  0  0  0  0  0  0  0
   -3.4683   -2.1980   -0.9739 H   0  0  0  0  0  0  0  0  0  0  0  0
   -3.8190   -0.9892   -2.2287 H   0  0  0  0  0  0  0  0  0  0  0  0
  1  2  1  0
  1 11  1  0
  1 12  1  0
  1 13  1  0
  2  3  1  0
  2 14  1  0
  3  4  2  0
  3  5  1  0
  5  6  2  3
  5  7  1  0
  6 15  1  0
  6 16  1  0
  7  8  1  0
  7 17  1  0
  8  9  1  0
  8 10  2  0
  9 18  1  0
  9 19  1  0
  9 20  1  0
M  END

> <RosettaParamsInstructions>
M  ROOT 7
M  POLY_N_BB 7
M  POLY_CA_BB 5
M  POLY_C_BB 3
M  POLY_O_BB 4
M  POLY_IGNORE 1 10 9 14 11 12 13 18 19 20
M  POLY_UPPER 2
M  POLY_LOWER 8
M  POLY_CHG 0
M  POLY_PROPERTIES PROTEIN POLYMER ALPHA_AA ALIPHATIC
M  END

$$$$
DHA_new
     RDKit          3D

 20 19  0  0  0  0  0  0  0  0999 V2000
    2.6754   -1.0915    2.5656 C   0  0  0  0  0  0  0  0  0  0  0  0
    1.6966   -0.1880    1.9173 N   0  0  0  0  0  0  0  0  0  0  0  0
    0.5904   -0.7970    1.2956 C   0  0  0  0  0  0  0  0  0  0  0  0
    0.4830   -2.0755    1.3184 O   0  0  0  0  0  0  0  0  0  0  0  0
   -0.4788   -0.0381    0.6029 C   0  0  0  0  0  0  0  0  0  0  0  0
   -0.3957    1.2710    0.5635 C   0  0  0  0  0  0  0  0  0  0  0  0
   -1.5364   -0.7694    0.0187 N   0  0  0  0  0  0  0  0  0  0  0  0
   -2.6417   -0.2701   -0.6780 C   0  0  0  0  0  0  0  0  0  0  0  0
   -3.6971   -1.1894   -1.2482 C   0  0  0  0  0  0  0  0  0  0  0  0
   -2.8432    0.9346   -0.8809 O   0  0  0  0  0  0  0  0  0  0  0  0
    3.2483   -0.5398    3.3217 H   0  0  0  0  0  0  0  0  0  0  0  0
    3.3195   -1.4799    1.7527 H   0  0  0  0  0  0  0  0  0  0  0  0
    2.1156   -1.8884    3.0994 H   0  0  0  0  0  0  0  0  0  0  0  0
    1.8457    0.8295    1.9373 H   0  0  0  0  0  0  0  0  0  0  0  0
    0.4419    1.7923    1.0302 H   0  0  0  0  0  0  0  0  0  0  0  0
   -1.1396    1.8511    0.0780 H   0  0  0  0  0  0  0  0  0  0  0  0
   -1.5127   -1.8378    0.1057 H   0  0  0  0  0  0  0  0  0  0  0  0
   -3.2614   -2.2091   -1.2355 H   0  0  0  0  0  0  0  0  0  0  0  0
   -3.9404   -0.8277   -2.2469 H   0  0  0  0  0  0  0  0  0  0  0  0
   -4.5758   -1.1289   -0.5765 H   0  0  0  0  0  0  0  0  0  0  0  0
  1  2  1  0
  1 11  1  0
  1 12  1  0
  1 13  1  0
  2  3  1  0
  2 14  1  0
  3  4  2  0
  3  5  1  0
  5  6  2  3
  5  7  1  0
  6 15  1  0
  6 16  1  0
  7  8  1  0
  7 17  1  0
  8  9  1  0
  8 10  2  0
  9 18  1  0
  9 19  1  0
  9 20  1  0
M  END

> <RosettaParamsInstructions>
M  ROOT 7
M  POLY_N_BB 7
M  POLY_CA_BB 5
M  POLY_C_BB 3
M  POLY_O_BB 4
M  POLY_IGNORE 1 10 9 14 11 12 13 18 19 20
M  POLY_UPPER 2
M  POLY_LOWER 8
M  POLY_CHG 0
M  POLY_PROPERTIES PROTEIN POLYMER ALPHA_AA ALIPHATIC
M  END

$$$$
DHA_new
     RDKit          3D

 20 19  0  0  0  0  0  0  0  0999 V2000
    2.6640   -1.0721    2.5792 C   0  0  0  0  0  0  0  0  0  0  0  0
    1.6830   -0.2428    1.8627 N   0  0  0  0  0  0  0  0  0  0  0  0
    0.5521   -0.8142    1.2987 C   0  0  0  0  0  0  0  0  0  0  0  0
    0.3803   -2.0701    1.4143 O   0  0  0  0  0  0  0  0  0  0  0  0
   -0.4554   -0.0604    0.5787 C   0  0  0  0  0  0  0  0  0  0  0  0
   -0.3147    1.2276    0.4390 C   0  0  0  0  0  0  0  0  0  0  0  0
   -1.5789   -0.7272    0.0360 N   0  0  0  0  0  0  0  0  0  0  0  0
   -2.6582   -0.2223   -0.6828 C   0  0  0  0  0  0  0  0  0  0  0  0
   -3.7256   -1.1607   -1.1460 C   0  0  0  0  0  0  0  0  0  0  0  0
   -2.8094    0.9643   -0.9758 O   0  0  0  0  0  0  0  0  0  0  0  0
    2.5206   -2.1357    2.3958 H   0  0  0  0  0  0  0  0  0  0  0  0
    3.6874   -0.8033    2.2469 H   0  0  0  0  0  0  0  0  0  0  0  0
    2.5794   -0.8937    3.6756 H   0  0  0  0  0  0  0  0  0  0  0  0
    1.9071    0.7591    1.8218 H   0  0  0  0  0  0  0  0  0  0  0  0
   -1.0473    1.8294   -0.0937 H   0  0  0  0  0  0  0  0  0  0  0  0
    0.5629    1.7316    0.8657 H   0  0  0  0  0  0  0  0  0  0  0  0
   -1.5821   -1.7857    0.2169 H   0  0  0  0  0  0  0  0  0  0  0  0
   -4.7364   -0.7859   -0.8470 H   0  0  0  0  0  0  0  0  0  0  0  0
   -3.5638   -2.1805   -0.7038 H   0  0  0  0  0  0  0  0  0  0  0  0
   -3.6715   -1.2097   -2.2414 H   0  0  0  0  0  0  0  0  0  0  0  0
  1  2  1  0
  1 11  1  0
  1 12  1  0
  1 13  1  0
  2  3  1  0
  2 14  1  0
  3  4  2  0
  3  5  1  0
  5  6  2  3
  5  7  1  0
  6 15  1  0
  6 16  1  0
  7  8  1  0
  7 17  1  0
  8  9  1  0
  8 10  2  0
  9 18  1  0
  9 19  1  0
  9 20  1  0
M  END

> <RosettaParamsInstructions>
M  ROOT 7
M  POLY_N_BB 7
M  POLY_CA_BB 5
M  POLY_C_BB 3
M  POLY_O_BB 4
M  POLY_IGNORE 1 10 9 14 11 12 13 18 19 20
M  POLY_UPPER 2
M  POLY_LOWER 8
M  POLY_CHG 0
M  POLY_PROPERTIES PROTEIN POLYMER ALPHA_AA ALIPHATIC
M  END

$$$$
DHA_new
     RDKit          3D

 20 19  0  0  0  0  0  0  0  0999 V2000
    2.6682   -1.0633    2.5915 C   0  0  0  0  0  0  0  0  0  0  0  0
    1.6870   -0.2481    1.8520 N   0  0  0  0  0  0  0  0  0  0  0  0
    0.5574   -0.8433    1.3122 C   0  0  0  0  0  0  0  0  0  0  0  0
    0.3674   -2.0765    1.4515 O   0  0  0  0  0  0  0  0  0  0  0  0
   -0.4620   -0.0822    0.5613 C   0  0  0  0  0  0  0  0  0  0  0  0
   -0.2762    1.2013    0.4097 C   0  0  0  0  0  0  0  0  0  0  0  0
   -1.5849   -0.7928    0.0481 N   0  0  0  0  0  0  0  0  0  0  0  0
   -2.6368   -0.2589   -0.6758 C   0  0  0  0  0  0  0  0  0  0  0  0
   -3.7506   -1.1604   -1.1461 C   0  0  0  0  0  0  0  0  0  0  0  0
   -2.7289    0.9427   -0.9726 O   0  0  0  0  0  0  0  0  0  0  0  0
    2.2622   -2.0675    2.7966 H   0  0  0  0  0  0  0  0  0  0  0  0
    2.8611   -0.5268    3.5296 H   0  0  0  0  0  0  0  0  0  0  0  0
    3.5687   -1.0782    1.9467 H   0  0  0  0  0  0  0  0  0  0  0  0
    1.9204    0.7504    1.7856 H   0  0  0  0  0  0  0  0  0  0  0  0
   -0.9874    1.7945   -0.1267 H   0  0  0  0  0  0  0  0  0  0  0  0
    0.6150    1.7064    0.8291 H   0  0  0  0  0  0  0  0  0  0  0  0
   -1.6233   -1.8445    0.2393 H   0  0  0  0  0  0  0  0  0  0  0  0
   -3.6444   -1.2609   -2.2242 H   0  0  0  0  0  0  0  0  0  0  0  0
   -4.7209   -0.6680   -0.9075 H   0  0  0  0  0  0  0  0  0  0  0  0
   -3.6983   -2.0758   -0.5595 H   0  0  0  0  0  0  0  0  0  0  0  0
  1  2  1  0
  1 11  1  0
  1 12  1  0
  1 13  1  0
  2  3  1  0
  2 14  1  0
  3  4  2  0
  3  5  1  0
  5  6  2  3
  5  7  1  0
  6 15  1  0
  6 16  1  0
  7  8  1  0
  7 17  1  0
  8  9  1  0
  8 10  2  0
  9 18  1  0
  9 19  1  0
  9 20  1  0
M  END

> <RosettaParamsInstructions>
M  ROOT 7
M  POLY_N_BB 7
M  POLY_CA_BB 5
M  POLY_C_BB 3
M  POLY_O_BB 4
M  POLY_IGNORE 1 10 9 14 11 12 13 18 19 20
M  POLY_UPPER 2
M  POLY_LOWER 8
M  POLY_CHG 0
M  POLY_PROPERTIES PROTEIN POLYMER ALPHA_AA ALIPHATIC
M  END

$$$$
DHA_new
     RDKit          3D

 20 19  0  0  0  0  0  0  0  0999 V2000
    2.6611   -1.0615    2.6005 C   0  0  0  0  0  0  0  0  0  0  0  0
    1.6977   -0.2618    1.8316 N   0  0  0  0  0  0  0  0  0  0  0  0
    0.5306   -0.8183    1.3137 C   0  0  0  0  0  0  0  0  0  0  0  0
    0.3208   -2.0546    1.5287 O   0  0  0  0  0  0  0  0  0  0  0  0
   -0.4338   -0.0373    0.5493 C   0  0  0  0  0  0  0  0  0  0  0  0
   -0.2338    1.2444    0.3164 C   0  0  0  0  0  0  0  0  0  0  0  0
   -1.5792   -0.7391    0.0833 N   0  0  0  0  0  0  0  0  0  0  0  0
   -2.6469   -0.2282   -0.6671 C   0  0  0  0  0  0  0  0  0  0  0  0
   -3.7740   -1.1667   -1.0585 C   0  0  0  0  0  0  0  0  0  0  0  0
   -2.7774    0.9483   -1.0609 O   0  0  0  0  0  0  0  0  0  0  0  0
    3.3443   -1.5067    1.8652 H   0  0  0  0  0  0  0  0  0  0  0  0
    2.1283   -1.8832    3.1099 H   0  0  0  0  0  0  0  0  0  0  0  0
    3.2307   -0.4416    3.2974 H   0  0  0  0  0  0  0  0  0  0  0  0
    1.9511    0.7292    1.7081 H   0  0  0  0  0  0  0  0  0  0  0  0
   -0.9367    1.8512   -0.2509 H   0  0  0  0  0  0  0  0  0  0  0  0
    0.6728    1.7123    0.7091 H   0  0  0  0  0  0  0  0  0  0  0  0
   -1.6361   -1.7800    0.3328 H   0  0  0  0  0  0  0  0  0  0  0  0
   -3.3815   -2.2031   -1.0457 H   0  0  0  0  0  0  0  0  0  0  0  0
   -4.1260   -0.8802   -2.0697 H   0  0  0  0  0  0  0  0  0  0  0  0
   -4.6184   -1.0753   -0.3524 H   0  0  0  0  0  0  0  0  0  0  0  0
  1  2  1  0
  1 11  1  0
  1 12  1  0
  1 13  1  0
  2  3  1  0
  2 14  1  0
  3  4  2  0
  3  5  1  0
  5  6  2  3
  5  7  1  0
  6 15  1  0
  6 16  1  0
  7  8  1  0
  7 17  1  0
  8  9  1  0
  8 10  2  0
  9 18  1  0
  9 19  1  0
  9 20  1  0
M  END

> <RosettaParamsInstructions>
M  ROOT 7
M  POLY_N_BB 7
M  POLY_CA_BB 5
M  POLY_C_BB 3
M  POLY_O_BB 4
M  POLY_IGNORE 1 10 9 14 11 12 13 18 19 20
M  POLY_UPPER 2
M  POLY_LOWER 8
M  POLY_CHG 0
M  POLY_PROPERTIES PROTEIN POLYMER ALPHA_AA ALIPHATIC
M  END

$$$$
DHA_new
     RDKit          3D

 20 19  0  0  0  0  0  0  0  0999 V2000
    2.6571   -1.0614    2.5734 C   0  0  0  0  0  0  0  0  0  0  0  0
    1.6785   -0.2236    1.8616 N   0  0  0  0  0  0  0  0  0  0  0  0
    0.5539   -0.8413    1.3120 C   0  0  0  0  0  0  0  0  0  0  0  0
    0.3826   -2.0971    1.4256 O   0  0  0  0  0  0  0  0  0  0  0  0
   -0.4549   -0.0434    0.5894 C   0  0  0  0  0  0  0  0  0  0  0  0
   -0.2921    1.2470    0.4649 C   0  0  0  0  0  0  0  0  0  0  0  0
   -1.5684   -0.7366    0.0591 N   0  0  0  0  0  0  0  0  0  0  0  0
   -2.6556   -0.2192   -0.6615 C   0  0  0  0  0  0  0  0  0  0  0  0
   -3.7410   -1.1665   -1.1323 C   0  0  0  0  0  0  0  0  0  0  0  0
   -2.8194    0.9668   -0.9583 O   0  0  0  0  0  0  0  0  0  0  0  0
    2.7021   -2.0209    2.0384 H   0  0  0  0  0  0  0  0  0  0  0  0
    3.6560   -0.5906    2.5209 H   0  0  0  0  0  0  0  0  0  0  0  0
    2.2882   -1.2328    3.5843 H   0  0  0  0  0  0  0  0  0  0  0  0
    1.8630    0.7753    1.7993 H   0  0  0  0  0  0  0  0  0  0  0  0
    0.5568    1.7661    0.8708 H   0  0  0  0  0  0  0  0  0  0  0  0
   -1.0215    1.8385   -0.0600 H   0  0  0  0  0  0  0  0  0  0  0  0
   -1.5775   -1.7945    0.2335 H   0  0  0  0  0  0  0  0  0  0  0  0
   -3.3750   -1.5558   -2.1152 H   0  0  0  0  0  0  0  0  0  0  0  0
   -4.6908   -0.6465   -1.2293 H   0  0  0  0  0  0  0  0  0  0  0  0
   -3.7483   -2.0157   -0.4359 H   0  0  0  0  0  0  0  0  0  0  0  0
  1  2  1  0
  1 11  1  0
  1 12  1  0
  1 13  1  0
  2  3  1  0
  2 14  1  0
  3  4  2  0
  3  5  1  0
  5  6  2  3
  5  7  1  0
  6 15  1  0
  6 16  1  0
  7  8  1  0
  7 17  1  0
  8  9  1  0
  8 10  2  0
  9 18  1  0
  9 19  1  0
  9 20  1  0
M  END

> <RosettaParamsInstructions>
M  ROOT 7
M  POLY_N_BB 7
M  POLY_CA_BB 5
M  POLY_C_BB 3
M  POLY_O_BB 4
M  POLY_IGNORE 1 10 9 14 11 12 13 18 19 20
M  POLY_UPPER 2
M  POLY_LOWER 8
M  POLY_CHG 0
M  POLY_PROPERTIES PROTEIN POLYMER ALPHA_AA ALIPHATIC
M  END

$$$$
DHA_new
     RDKit          3D

 20 19  0  0  0  0  0  0  0  0999 V2000
    2.6456   -1.0811    2.5761 C   0  0  0  0  0  0  0  0  0  0  0  0
    1.7278   -0.2192    1.8289 N   0  0  0  0  0  0  0  0  0  0  0  0
    0.5630   -0.7906    1.3145 C   0  0  0  0  0  0  0  0  0  0  0  0
    0.3482   -2.0330    1.5159 O   0  0  0  0  0  0  0  0  0  0  0  0
   -0.4516   -0.0410    0.5414 C   0  0  0  0  0  0  0  0  0  0  0  0
   -0.2460    1.2459    0.3231 C   0  0  0  0  0  0  0  0  0  0  0  0
   -1.5902   -0.7353    0.0739 N   0  0  0  0  0  0  0  0  0  0  0  0
   -2.6393   -0.2102   -0.6603 C   0  0  0  0  0  0  0  0  0  0  0  0
   -3.7634   -1.1586   -1.0534 C   0  0  0  0  0  0  0  0  0  0  0  0
   -2.7910    0.9626   -1.0523 O   0  0  0  0  0  0  0  0  0  0  0  0
    2.5518   -2.1108    2.1780 H   0  0  0  0  0  0  0  0  0  0  0  0
    2.3250   -1.1111    3.6358 H   0  0  0  0  0  0  0  0  0  0  0  0
    3.6846   -0.7394    2.4438 H   0  0  0  0  0  0  0  0  0  0  0  0
    1.9655    0.7770    1.7046 H   0  0  0  0  0  0  0  0  0  0  0  0
   -0.9683    1.8240   -0.2388 H   0  0  0  0  0  0  0  0  0  0  0  0
    0.6593    1.7494    0.7074 H   0  0  0  0  0  0  0  0  0  0  0  0
   -1.6230   -1.7695    0.3247 H   0  0  0  0  0  0  0  0  0  0  0  0
   -3.3554   -2.1778   -1.1195 H   0  0  0  0  0  0  0  0  0  0  0  0
   -4.1297   -0.8807   -2.0450 H   0  0  0  0  0  0  0  0  0  0  0  0
   -4.5194   -1.1527   -0.2581 H   0  0  0  0  0  0  0  0  0  0  0  0
  1  2  1  0
  1 11  1  0
  1 12  1  0
  1 13  1  0
  2  3  1  0
  2 14  1  0
  3  4  2  0
  3  5  1  0
  5  6  2  3
  5  7  1  0
  6 15  1  0
  6 16  1  0
  7  8  1  0
  7 17  1  0
  8  9  1  0
  8 10  2  0
  9 18  1  0
  9 19  1  0
  9 20  1  0
M  END

> <RosettaParamsInstructions>
M  ROOT 7
M  POLY_N_BB 7
M  POLY_CA_BB 5
M  POLY_C_BB 3
M  POLY_O_BB 4
M  POLY_IGNORE 1 10 9 14 11 12 13 18 19 20
M  POLY_UPPER 2
M  POLY_LOWER 8
M  POLY_CHG 0
M  POLY_PROPERTIES PROTEIN POLYMER ALPHA_AA ALIPHATIC
M  END

$$$$
DHA_new
     RDKit          3D

 20 19  0  0  0  0  0  0  0  0999 V2000
    2.6816   -1.1002    2.5801 C   0  0  0  0  0  0  0  0  0  0  0  0
    1.7090   -0.2418    1.8713 N   0  0  0  0  0  0  0  0  0  0  0  0
    0.5474   -0.8016    1.2929 C   0  0  0  0  0  0  0  0  0  0  0  0
    0.3881   -2.0421    1.4105 O   0  0  0  0  0  0  0  0  0  0  0  0
   -0.4730   -0.0346    0.5719 C   0  0  0  0  0  0  0  0  0  0  0  0
   -0.3073    1.2666    0.4478 C   0  0  0  0  0  0  0  0  0  0  0  0
   -1.5781   -0.7576    0.0539 N   0  0  0  0  0  0  0  0  0  0  0  0
   -2.6635   -0.2298   -0.6642 C   0  0  0  0  0  0  0  0  0  0  0  0
   -3.7355   -1.2007   -1.1211 C   0  0  0  0  0  0  0  0  0  0  0  0
   -2.8145    0.9737   -0.9552 O   0  0  0  0  0  0  0  0  0  0  0  0
    3.7053   -0.7123    2.3393 H   0  0  0  0  0  0  0  0  0  0  0  0
    2.5272   -2.1171    2.1774 H   0  0  0  0  0  0  0  0  0  0  0  0
    2.4381   -1.0231    3.6421 H   0  0  0  0  0  0  0  0  0  0  0  0
    1.9526    0.7638    1.8425 H   0  0  0  0  0  0  0  0  0  0  0  0
    0.5642    1.7516    0.8708 H   0  0  0  0  0  0  0  0  0  0  0  0
   -1.0081    1.9045   -0.0662 H   0  0  0  0  0  0  0  0  0  0  0  0
   -1.5968   -1.8114    0.2214 H   0  0  0  0  0  0  0  0  0  0  0  0
   -3.3264   -2.2182   -1.1448 H   0  0  0  0  0  0  0  0  0  0  0  0
   -4.6091   -1.0871   -0.4514 H   0  0  0  0  0  0  0  0  0  0  0  0
   -4.0078   -0.9348   -2.1781 H   0  0  0  0  0  0  0  0  0  0  0  0
  1  2  1  0
  1 11  1  0
  1 12  1  0
  1 13  1  0
  2  3  1  0
  2 14  1  0
  3  4  2  0
  3  5  1  0
  5  6  2  3
  5  7  1  0
  6 15  1  0
  6 16  1  0
  7  8  1  0
  7 17  1  0
  8  9  1  0
  8 10  2  0
  9 18  1  0
  9 19  1  0
  9 20  1  0
M  END

> <RosettaParamsInstructions>
M  ROOT 7
M  POLY_N_BB 7
M  POLY_CA_BB 5
M  POLY_C_BB 3
M  POLY_O_BB 4
M  POLY_IGNORE 1 10 9 14 11 12 13 18 19 20
M  POLY_UPPER 2
M  POLY_LOWER 8
M  POLY_CHG 0
M  POLY_PROPERTIES PROTEIN POLYMER ALPHA_AA ALIPHATIC
M  END

$$$$
DHA_new
     RDKit          3D

 20 19  0  0  0  0  0  0  0  0999 V2000
    2.6954   -1.0720    2.5766 C   0  0  0  0  0  0  0  0  0  0  0  0
    1.6870   -0.2578    1.9085 N   0  0  0  0  0  0  0  0  0  0  0  0
    0.5664   -0.8034    1.2885 C   0  0  0  0  0  0  0  0  0  0  0  0
    0.4318   -2.0690    1.3151 O   0  0  0  0  0  0  0  0  0  0  0  0
   -0.4895   -0.0326    0.5960 C   0  0  0  0  0  0  0  0  0  0  0  0
   -0.4093    1.2603    0.5350 C   0  0  0  0  0  0  0  0  0  0  0  0
   -1.5702   -0.7450    0.0131 N   0  0  0  0  0  0  0  0  0  0  0  0
   -2.6560   -0.2338   -0.6756 C   0  0  0  0  0  0  0  0  0  0  0  0
   -3.6901   -1.1988   -1.2096 C   0  0  0  0  0  0  0  0  0  0  0  0
   -2.8554    0.9652   -0.8948 O   0  0  0  0  0  0  0  0  0  0  0  0
    3.3418   -0.4651    3.2419 H   0  0  0  0  0  0  0  0  0  0  0  0
    3.3338   -1.5486    1.8044 H   0  0  0  0  0  0  0  0  0  0  0  0
    2.2102   -1.8261    3.2500 H   0  0  0  0  0  0  0  0  0  0  0  0
    1.8499    0.7631    1.9191 H   0  0  0  0  0  0  0  0  0  0  0  0
    0.4450    1.7668    1.0003 H   0  0  0  0  0  0  0  0  0  0  0  0
   -1.1542    1.8494    0.0426 H   0  0  0  0  0  0  0  0  0  0  0  0
   -1.5492   -1.8151    0.1154 H   0  0  0  0  0  0  0  0  0  0  0  0
   -4.5352   -1.2293   -0.5215 H   0  0  0  0  0  0  0  0  0  0  0  0
   -3.2014   -2.1606   -1.3871 H   0  0  0  0  0  0  0  0  0  0  0  0
   -4.0572   -0.7997   -2.1769 H   0  0  0  0  0  0  0  0  0  0  0  0
  1  2  1  0
  1 11  1  0
  1 12  1  0
  1 13  1  0
  2  3  1  0
  2 14  1  0
  3  4  2  0
  3  5  1  0
  5  6  2  3
  5  7  1  0
  6 15  1  0
  6 16  1  0
  7  8  1  0
  7 17  1  0
  8  9  1  0
  8 10  2  0
  9 18  1  0
  9 19  1  0
  9 20  1  0
M  END

> <RosettaParamsInstructions>
M  ROOT 7
M  POLY_N_BB 7
M  POLY_CA_BB 5
M  POLY_C_BB 3
M  POLY_O_BB 4
M  POLY_IGNORE 1 10 9 14 11 12 13 18 19 20
M  POLY_UPPER 2
M  POLY_LOWER 8
M  POLY_CHG 0
M  POLY_PROPERTIES PROTEIN POLYMER ALPHA_AA ALIPHATIC
M  END

$$$$
DHA_new
     RDKit          3D

 20 19  0  0  0  0  0  0  0  0999 V2000
    2.6721   -1.0552    2.5862 C   0  0  0  0  0  0  0  0  0  0  0  0
    1.6796   -0.2509    1.8536 N   0  0  0  0  0  0  0  0  0  0  0  0
    0.5418   -0.8352    1.3001 C   0  0  0  0  0  0  0  0  0  0  0  0
    0.3847   -2.0872    1.4468 O   0  0  0  0  0  0  0  0  0  0  0  0
   -0.4711   -0.0634    0.5608 C   0  0  0  0  0  0  0  0  0  0  0  0
   -0.2892    1.2125    0.4229 C   0  0  0  0  0  0  0  0  0  0  0  0
   -1.5836   -0.7667    0.0448 N   0  0  0  0  0  0  0  0  0  0  0  0
   -2.6487   -0.2360   -0.6796 C   0  0  0  0  0  0  0  0  0  0  0  0
   -3.7432   -1.1589   -1.1428 C   0  0  0  0  0  0  0  0  0  0  0  0
   -2.7410    0.9632   -0.9636 O   0  0  0  0  0  0  0  0  0  0  0  0
    3.6593   -0.7325    2.2329 H   0  0  0  0  0  0  0  0  0  0  0  0
    2.4783   -2.1113    2.3057 H   0  0  0  0  0  0  0  0  0  0  0  0
    2.5428   -0.8736    3.6686 H   0  0  0  0  0  0  0  0  0  0  0  0
    1.9092    0.7513    1.7982 H   0  0  0  0  0  0  0  0  0  0  0  0
   -0.9780    1.8293   -0.0973 H   0  0  0  0  0  0  0  0  0  0  0  0
    0.5812    1.7314    0.8320 H   0  0  0  0  0  0  0  0  0  0  0  0
   -1.6383   -1.8304    0.2165 H   0  0  0  0  0  0  0  0  0  0  0  0
   -3.3362   -1.7368   -1.9731 H   0  0  0  0  0  0  0  0  0  0  0  0
   -4.6394   -0.5666   -1.3653 H   0  0  0  0  0  0  0  0  0  0  0  0
   -3.9867   -1.8354   -0.3067 H   0  0  0  0  0  0  0  0  0  0  0  0
  1  2  1  0
  1 11  1  0
  1 12  1  0
  1 13  1  0
  2  3  1  0
  2 14  1  0
  3  4  2  0
  3  5  1  0
  5  6  2  3
  5  7  1  0
  6 15  1  0
  6 16  1  0
  7  8  1  0
  7 17  1  0
  8  9  1  0
  8 10  2  0
  9 18  1  0
  9 19  1  0
  9 20  1  0
M  END

> <RosettaParamsInstructions>
M  ROOT 7
M  POLY_N_BB 7
M  POLY_CA_BB 5
M  POLY_C_BB 3
M  POLY_O_BB 4
M  POLY_IGNORE 1 10 9 14 11 12 13 18 19 20
M  POLY_UPPER 2
M  POLY_LOWER 8
M  POLY_CHG 0
M  POLY_PROPERTIES PROTEIN POLYMER ALPHA_AA ALIPHATIC
M  END

$$$$
DHA_new
     RDKit          3D

 20 19  0  0  0  0  0  0  0  0999 V2000
    2.6738   -1.0392    2.6122 C   0  0  0  0  0  0  0  0  0  0  0  0
    1.7065   -0.2188    1.8445 N   0  0  0  0  0  0  0  0  0  0  0  0
    0.5536   -0.8161    1.3269 C   0  0  0  0  0  0  0  0  0  0  0  0
    0.3561   -2.0430    1.5221 O   0  0  0  0  0  0  0  0  0  0  0  0
   -0.4595   -0.0826    0.5545 C   0  0  0  0  0  0  0  0  0  0  0  0
   -0.2622    1.1987    0.3455 C   0  0  0  0  0  0  0  0  0  0  0  0
   -1.5998   -0.7391    0.0593 N   0  0  0  0  0  0  0  0  0  0  0  0
   -2.6637   -0.2483   -0.6812 C   0  0  0  0  0  0  0  0  0  0  0  0
   -3.8002   -1.1404   -1.1148 C   0  0  0  0  0  0  0  0  0  0  0  0
   -2.7405    0.9508   -1.0284 O   0  0  0  0  0  0  0  0  0  0  0  0
    2.4874   -2.1122    2.3415 H   0  0  0  0  0  0  0  0  0  0  0  0
    2.5292   -0.9247    3.6848 H   0  0  0  0  0  0  0  0  0  0  0  0
    3.6853   -0.7984    2.2575 H   0  0  0  0  0  0  0  0  0  0  0  0
    2.0043    0.7725    1.7670 H   0  0  0  0  0  0  0  0  0  0  0  0
    0.6382    1.6612    0.7507 H   0  0  0  0  0  0  0  0  0  0  0  0
   -0.9468    1.8426   -0.2139 H   0  0  0  0  0  0  0  0  0  0  0  0
   -1.6458   -1.7924    0.2985 H   0  0  0  0  0  0  0  0  0  0  0  0
   -4.0410   -0.9289   -2.1578 H   0  0  0  0  0  0  0  0  0  0  0  0
   -4.6269   -1.0064   -0.4026 H   0  0  0  0  0  0  0  0  0  0  0  0
   -3.4543   -2.1874   -1.0256 H   0  0  0  0  0  0  0  0  0  0  0  0
  1  2  1  0
  1 11  1  0
  1 12  1  0
  1 13  1  0
  2  3  1  0
  2 14  1  0
  3  4  2  0
  3  5  1  0
  5  6  2  3
  5  7  1  0
  6 15  1  0
  6 16  1  0
  7  8  1  0
  7 17  1  0
  8  9  1  0
  8 10  2  0
  9 18  1  0
  9 19  1  0
  9 20  1  0
M  END

> <RosettaParamsInstructions>
M  ROOT 7
M  POLY_N_BB 7
M  POLY_CA_BB 5
M  POLY_C_BB 3
M  POLY_O_BB 4
M  POLY_IGNORE 1 10 9 14 11 12 13 18 19 20
M  POLY_UPPER 2
M  POLY_LOWER 8
M  POLY_CHG 0
M  POLY_PROPERTIES PROTEIN POLYMER ALPHA_AA ALIPHATIC
M  END

$$$$
DHA_new
     RDKit          3D

 20 19  0  0  0  0  0  0  0  0999 V2000
    2.7478   -1.0382    2.5317 C   0  0  0  0  0  0  0  0  0  0  0  0
    1.7199   -0.2519    1.8157 N   0  0  0  0  0  0  0  0  0  0  0  0
    0.5823   -0.8623    1.2881 C   0  0  0  0  0  0  0  0  0  0  0  0
    0.4553   -2.1256    1.4429 O   0  0  0  0  0  0  0  0  0  0  0  0
   -0.4519   -0.1212    0.5767 C   0  0  0  0  0  0  0  0  0  0  0  0
   -0.3269    1.1666    0.4164 C   0  0  0  0  0  0  0  0  0  0  0  0
   -1.5864   -0.8167    0.0660 N   0  0  0  0  0  0  0  0  0  0  0  0
   -2.6535   -0.2582   -0.6311 C   0  0  0  0  0  0  0  0  0  0  0  0
   -3.8058   -1.1222   -1.1217 C   0  0  0  0  0  0  0  0  0  0  0  0
   -2.7716    0.9493   -0.9131 O   0  0  0  0  0  0  0  0  0  0  0  0
    3.5380   -1.3316    1.8388 H   0  0  0  0  0  0  0  0  0  0  0  0
    2.1940   -1.9003    2.9554 H   0  0  0  0  0  0  0  0  0  0  0  0
    3.1138   -0.4290    3.3909 H   0  0  0  0  0  0  0  0  0  0  0  0
    1.9120    0.7492    1.7442 H   0  0  0  0  0  0  0  0  0  0  0  0
    0.5576    1.6904    0.8178 H   0  0  0  0  0  0  0  0  0  0  0  0
   -1.0001    1.8424   -0.0813 H   0  0  0  0  0  0  0  0  0  0  0  0
   -1.6300   -1.8870    0.2331 H   0  0  0  0  0  0  0  0  0  0  0  0
   -3.7159   -2.0814   -0.6102 H   0  0  0  0  0  0  0  0  0  0  0  0
   -4.7251   -0.5807   -0.8110 H   0  0  0  0  0  0  0  0  0  0  0  0
   -3.7601   -1.2436   -2.2083 H   0  0  0  0  0  0  0  0  0  0  0  0
  1  2  1  0
  1 11  1  0
  1 12  1  0
  1 13  1  0
  2  3  1  0
  2 14  1  0
  3  4  2  0
  3  5  1  0
  5  6  2  3
  5  7  1  0
  6 15  1  0
  6 16  1  0
  7  8  1  0
  7 17  1  0
  8  9  1  0
  8 10  2  0
  9 18  1  0
  9 19  1  0
  9 20  1  0
M  END

> <RosettaParamsInstructions>
M  ROOT 7
M  POLY_N_BB 7
M  POLY_CA_BB 5
M  POLY_C_BB 3
M  POLY_O_BB 4
M  POLY_IGNORE 1 10 9 14 11 12 13 18 19 20
M  POLY_UPPER 2
M  POLY_LOWER 8
M  POLY_CHG 0
M  POLY_PROPERTIES PROTEIN POLYMER ALPHA_AA ALIPHATIC
M  END

$$$$
DHA_new
     RDKit          3D

 20 19  0  0  0  0  0  0  0  0999 V2000
    2.6514   -1.0659    2.5654 C   0  0  0  0  0  0  0  0  0  0  0  0
    1.6748   -0.2168    1.8527 N   0  0  0  0  0  0  0  0  0  0  0  0
    0.5424   -0.8190    1.2927 C   0  0  0  0  0  0  0  0  0  0  0  0
    0.3888   -2.0654    1.4123 O   0  0  0  0  0  0  0  0  0  0  0  0
   -0.4555   -0.0245    0.5767 C   0  0  0  0  0  0  0  0  0  0  0  0
   -0.3124    1.2651    0.4437 C   0  0  0  0  0  0  0  0  0  0  0  0
   -1.5629   -0.7228    0.0474 N   0  0  0  0  0  0  0  0  0  0  0  0
   -2.6507   -0.2361   -0.6695 C   0  0  0  0  0  0  0  0  0  0  0  0
   -3.7202   -1.1969   -1.1326 C   0  0  0  0  0  0  0  0  0  0  0  0
   -2.8154    0.9666   -0.9675 O   0  0  0  0  0  0  0  0  0  0  0  0
    3.5842   -1.1257    1.9717 H   0  0  0  0  0  0  0  0  0  0  0  0
    2.8094   -0.6824    3.5901 H   0  0  0  0  0  0  0  0  0  0  0  0
    2.2775   -2.0992    2.6674 H   0  0  0  0  0  0  0  0  0  0  0  0
    1.8999    0.7741    1.8177 H   0  0  0  0  0  0  0  0  0  0  0  0
    0.5598    1.7625    0.8694 H   0  0  0  0  0  0  0  0  0  0  0  0
   -1.0349    1.8650   -0.0788 H   0  0  0  0  0  0  0  0  0  0  0  0
   -1.5697   -1.7847    0.2217 H   0  0  0  0  0  0  0  0  0  0  0  0
   -4.1599   -0.8142   -2.0625 H   0  0  0  0  0  0  0  0  0  0  0  0
   -4.4859   -1.2625   -0.3547 H   0  0  0  0  0  0  0  0  0  0  0  0
   -3.2272   -2.1694   -1.3225 H   0  0  0  0  0  0  0  0  0  0  0  0
  1  2  1  0
  1 11  1  0
  1 12  1  0
  1 13  1  0
  2  3  1  0
  2 14  1  0
  3  4  2  0
  3  5  1  0
  5  6  2  3
  5  7  1  0
  6 15  1  0
  6 16  1  0
  7  8  1  0
  7 17  1  0
  8  9  1  0
  8 10  2  0
  9 18  1  0
  9 19  1  0
  9 20  1  0
M  END

> <RosettaParamsInstructions>
M  ROOT 7
M  POLY_N_BB 7
M  POLY_CA_BB 5
M  POLY_C_BB 3
M  POLY_O_BB 4
M  POLY_IGNORE 1 10 9 14 11 12 13 18 19 20
M  POLY_UPPER 2
M  POLY_LOWER 8
M  POLY_CHG 0
M  POLY_PROPERTIES PROTEIN POLYMER ALPHA_AA ALIPHATIC
M  END

$$$$
DHA_new
     RDKit          3D

 20 19  0  0  0  0  0  0  0  0999 V2000
    2.7084   -1.0280    2.5889 C   0  0  0  0  0  0  0  0  0  0  0  0
    1.7038   -0.2657    1.8322 N   0  0  0  0  0  0  0  0  0  0  0  0
    0.5535   -0.8688    1.3176 C   0  0  0  0  0  0  0  0  0  0  0  0
    0.4053   -2.1093    1.5285 O   0  0  0  0  0  0  0  0  0  0  0  0
   -0.4649   -0.1083    0.5534 C   0  0  0  0  0  0  0  0  0  0  0  0
   -0.2899    1.1721    0.3484 C   0  0  0  0  0  0  0  0  0  0  0  0
   -1.5788   -0.8279    0.0874 N   0  0  0  0  0  0  0  0  0  0  0  0
   -2.6285   -0.2708   -0.6462 C   0  0  0  0  0  0  0  0  0  0  0  0
   -3.7950   -1.1109   -1.1136 C   0  0  0  0  0  0  0  0  0  0  0  0
   -2.6991    0.9247   -0.9717 O   0  0  0  0  0  0  0  0  0  0  0  0
    2.4790   -2.0958    2.4129 H   0  0  0  0  0  0  0  0  0  0  0  0
    2.5837   -0.7758    3.6667 H   0  0  0  0  0  0  0  0  0  0  0  0
    3.6996   -0.7288    2.2576 H   0  0  0  0  0  0  0  0  0  0  0  0
    1.9504    0.7408    1.7336 H   0  0  0  0  0  0  0  0  0  0  0  0
    0.6102    1.6720    0.7444 H   0  0  0  0  0  0  0  0  0  0  0  0
   -0.9349    1.8277   -0.1771 H   0  0  0  0  0  0  0  0  0  0  0  0
   -1.6697   -1.8745    0.2849 H   0  0  0  0  0  0  0  0  0  0  0  0
   -3.5395   -2.1822   -1.0246 H   0  0  0  0  0  0  0  0  0  0  0  0
   -4.0036   -0.8287   -2.1578 H   0  0  0  0  0  0  0  0  0  0  0  0
   -4.6966   -0.9142   -0.5245 H   0  0  0  0  0  0  0  0  0  0  0  0
  1  2  1  0
  1 11  1  0
  1 12  1  0
  1 13  1  0
  2  3  1  0
  2 14  1  0
  3  4  2  0
  3  5  1  0
  5  6  2  3
  5  7  1  0
  6 15  1  0
  6 16  1  0
  7  8  1  0
  7 17  1  0
  8  9  1  0
  8 10  2  0
  9 18  1  0
  9 19  1  0
  9 20  1  0
M  END

> <RosettaParamsInstructions>
M  ROOT 7
M  POLY_N_BB 7
M  POLY_CA_BB 5
M  POLY_C_BB 3
M  POLY_O_BB 4
M  POLY_IGNORE 1 10 9 14 11 12 13 18 19 20
M  POLY_UPPER 2
M  POLY_LOWER 8
M  POLY_CHG 0
M  POLY_PROPERTIES PROTEIN POLYMER ALPHA_AA ALIPHATIC
M  END

$$$$
DHA_new
     RDKit          3D

 20 19  0  0  0  0  0  0  0  0999 V2000
    2.6433   -1.0477    2.6436 C   0  0  0  0  0  0  0  0  0  0  0  0
    1.6866   -0.2306    1.8734 N   0  0  0  0  0  0  0  0  0  0  0  0
    0.5369   -0.8207    1.3294 C   0  0  0  0  0  0  0  0  0  0  0  0
    0.3350   -2.0461    1.5061 O   0  0  0  0  0  0  0  0  0  0  0  0
   -0.4725   -0.0806    0.5465 C   0  0  0  0  0  0  0  0  0  0  0  0
   -0.3049    1.1940    0.3374 C   0  0  0  0  0  0  0  0  0  0  0  0
   -1.6087   -0.7975    0.0413 N   0  0  0  0  0  0  0  0  0  0  0  0
   -2.6288   -0.2158   -0.7096 C   0  0  0  0  0  0  0  0  0  0  0  0
   -3.7528   -1.1402   -1.1571 C   0  0  0  0  0  0  0  0  0  0  0  0
   -2.7427    0.9796   -1.0677 O   0  0  0  0  0  0  0  0  0  0  0  0
    3.6779   -0.7113    2.4322 H   0  0  0  0  0  0  0  0  0  0  0  0
    2.4487   -0.9317    3.7432 H   0  0  0  0  0  0  0  0  0  0  0  0
    2.5612   -2.1110    2.3368 H   0  0  0  0  0  0  0  0  0  0  0  0
    1.9533    0.7718    1.7896 H   0  0  0  0  0  0  0  0  0  0  0  0
   -0.9452    1.8475   -0.2039 H   0  0  0  0  0  0  0  0  0  0  0  0
    0.5891    1.6849    0.7526 H   0  0  0  0  0  0  0  0  0  0  0  0
   -1.6817   -1.8391    0.2504 H   0  0  0  0  0  0  0  0  0  0  0  0
   -4.3656   -0.6826   -1.9358 H   0  0  0  0  0  0  0  0  0  0  0  0
   -3.2200   -2.0625   -1.5149 H   0  0  0  0  0  0  0  0  0  0  0  0
   -4.3155   -1.4126   -0.2525 H   0  0  0  0  0  0  0  0  0  0  0  0
  1  2  1  0
  1 11  1  0
  1 12  1  0
  1 13  1  0
  2  3  1  0
  2 14  1  0
  3  4  2  0
  3  5  1  0
  5  6  2  3
  5  7  1  0
  6 15  1  0
  6 16  1  0
  7  8  1  0
  7 17  1  0
  8  9  1  0
  8 10  2  0
  9 18  1  0
  9 19  1  0
  9 20  1  0
M  END

> <RosettaParamsInstructions>
M  ROOT 7
M  POLY_N_BB 7
M  POLY_CA_BB 5
M  POLY_C_BB 3
M  POLY_O_BB 4
M  POLY_IGNORE 1 10 9 14 11 12 13 18 19 20
M  POLY_UPPER 2
M  POLY_LOWER 8
M  POLY_CHG 0
M  POLY_PROPERTIES PROTEIN POLYMER ALPHA_AA ALIPHATIC
M  END

$$$$
DHA_new
     RDKit          3D

 20 19  0  0  0  0  0  0  0  0999 V2000
    2.6128   -1.0211    2.6677 C   0  0  0  0  0  0  0  0  0  0  0  0
    1.6766   -0.2326    1.8752 N   0  0  0  0  0  0  0  0  0  0  0  0
    0.5395   -0.8261    1.3555 C   0  0  0  0  0  0  0  0  0  0  0  0
    0.3299   -2.0590    1.5804 O   0  0  0  0  0  0  0  0  0  0  0  0
   -0.4404   -0.0777    0.5478 C   0  0  0  0  0  0  0  0  0  0  0  0
   -0.2308    1.1800    0.3158 C   0  0  0  0  0  0  0  0  0  0  0  0
   -1.5709   -0.7825    0.0638 N   0  0  0  0  0  0  0  0  0  0  0  0
   -2.6115   -0.2734   -0.7123 C   0  0  0  0  0  0  0  0  0  0  0  0
   -3.7626   -1.1465   -1.1607 C   0  0  0  0  0  0  0  0  0  0  0  0
   -2.6770    0.9019   -1.0875 O   0  0  0  0  0  0  0  0  0  0  0  0
    3.6325   -0.7257    2.3729 H   0  0  0  0  0  0  0  0  0  0  0  0
    2.4835   -0.8192    3.7387 H   0  0  0  0  0  0  0  0  0  0  0  0
    2.4523   -2.0950    2.4472 H   0  0  0  0  0  0  0  0  0  0  0  0
    1.9219    0.7513    1.7429 H   0  0  0  0  0  0  0  0  0  0  0  0
    0.6613    1.6627    0.7187 H   0  0  0  0  0  0  0  0  0  0  0  0
   -0.9159    1.7737   -0.2690 H   0  0  0  0  0  0  0  0  0  0  0  0
   -1.6347   -1.8283    0.3238 H   0  0  0  0  0  0  0  0  0  0  0  0
   -3.7619   -1.2029   -2.2601 H   0  0  0  0  0  0  0  0  0  0  0  0
   -3.6227   -2.1686   -0.7416 H   0  0  0  0  0  0  0  0  0  0  0  0
   -4.6882   -0.6632   -0.7781 H   0  0  0  0  0  0  0  0  0  0  0  0
  1  2  1  0
  1 11  1  0
  1 12  1  0
  1 13  1  0
  2  3  1  0
  2 14  1  0
  3  4  2  0
  3  5  1  0
  5  6  2  3
  5  7  1  0
  6 15  1  0
  6 16  1  0
  7  8  1  0
  7 17  1  0
  8  9  1  0
  8 10  2  0
  9 18  1  0
  9 19  1  0
  9 20  1  0
M  END

> <RosettaParamsInstructions>
M  ROOT 7
M  POLY_N_BB 7
M  POLY_CA_BB 5
M  POLY_C_BB 3
M  POLY_O_BB 4
M  POLY_IGNORE 1 10 9 14 11 12 13 18 19 20
M  POLY_UPPER 2
M  POLY_LOWER 8
M  POLY_CHG 0
M  POLY_PROPERTIES PROTEIN POLYMER ALPHA_AA ALIPHATIC
M  END

$$$$
DHA_new
     RDKit          3D

 20 19  0  0  0  0  0  0  0  0999 V2000
    2.6192   -1.0199    2.6785 C   0  0  0  0  0  0  0  0  0  0  0  0
    1.6702   -0.2280    1.8724 N   0  0  0  0  0  0  0  0  0  0  0  0
    0.5301   -0.8311    1.3569 C   0  0  0  0  0  0  0  0  0  0  0  0
    0.2932   -2.0691    1.5737 O   0  0  0  0  0  0  0  0  0  0  0  0
   -0.4493   -0.0922    0.5481 C   0  0  0  0  0  0  0  0  0  0  0  0
   -0.2292    1.1720    0.3136 C   0  0  0  0  0  0  0  0  0  0  0  0
   -1.5822   -0.7602    0.0548 N   0  0  0  0  0  0  0  0  0  0  0  0
   -2.6064   -0.2421   -0.7178 C   0  0  0  0  0  0  0  0  0  0  0  0
   -3.7342   -1.1663   -1.1332 C   0  0  0  0  0  0  0  0  0  0  0  0
   -2.7070    0.9307   -1.1203 O   0  0  0  0  0  0  0  0  0  0  0  0
    2.4499   -2.0843    2.4335 H   0  0  0  0  0  0  0  0  0  0  0  0
    3.6570   -0.7738    2.3896 H   0  0  0  0  0  0  0  0  0  0  0  0
    2.4500   -0.8337    3.7390 H   0  0  0  0  0  0  0  0  0  0  0  0
    1.9492    0.7563    1.7548 H   0  0  0  0  0  0  0  0  0  0  0  0
    0.6547    1.6808    0.7014 H   0  0  0  0  0  0  0  0  0  0  0  0
   -0.8992    1.7851   -0.2711 H   0  0  0  0  0  0  0  0  0  0  0  0
   -1.6503   -1.7915    0.3137 H   0  0  0  0  0  0  0  0  0  0  0  0
   -3.8993   -1.0264   -2.2243 H   0  0  0  0  0  0  0  0  0  0  0  0
   -3.4749   -2.1992   -0.9061 H   0  0  0  0  0  0  0  0  0  0  0  0
   -4.6481   -0.8594   -0.6163 H   0  0  0  0  0  0  0  0  0  0  0  0
  1  2  1  0
  1 11  1  0
  1 12  1  0
  1 13  1  0
  2  3  1  0
  2 14  1  0
  3  4  2  0
  3  5  1  0
  5  6  2  3
  5  7  1  0
  6 15  1  0
  6 16  1  0
  7  8  1  0
  7 17  1  0
  8  9  1  0
  8 10  2  0
  9 18  1  0
  9 19  1  0
  9 20  1  0
M  END

> <RosettaParamsInstructions>
M  ROOT 7
M  POLY_N_BB 7
M  POLY_CA_BB 5
M  POLY_C_BB 3
M  POLY_O_BB 4
M  POLY_IGNORE 1 10 9 14 11 12 13 18 19 20
M  POLY_UPPER 2
M  POLY_LOWER 8
M  POLY_CHG 0
M  POLY_PROPERTIES PROTEIN POLYMER ALPHA_AA ALIPHATIC
M  END

$$$$
DHA_new
     RDKit          3D

 20 19  0  0  0  0  0  0  0  0999 V2000
    2.6928   -1.0587    2.5194 C   0  0  0  0  0  0  0  0  0  0  0  0
    1.6923   -0.2196    1.8501 N   0  0  0  0  0  0  0  0  0  0  0  0
    0.5852   -0.8299    1.2843 C   0  0  0  0  0  0  0  0  0  0  0  0
    0.4514   -2.0998    1.3518 O   0  0  0  0  0  0  0  0  0  0  0  0
   -0.4710   -0.0403    0.5888 C   0  0  0  0  0  0  0  0  0  0  0  0
   -0.3757    1.2588    0.4959 C   0  0  0  0  0  0  0  0  0  0  0  0
   -1.5576   -0.7585    0.0468 N   0  0  0  0  0  0  0  0  0  0  0  0
   -2.6408   -0.2306   -0.6345 C   0  0  0  0  0  0  0  0  0  0  0  0
   -3.7295   -1.1778   -1.1516 C   0  0  0  0  0  0  0  0  0  0  0  0
   -2.8150    0.9692   -0.8707 O   0  0  0  0  0  0  0  0  0  0  0  0
    3.0889   -0.4908    3.3752 H   0  0  0  0  0  0  0  0  0  0  0  0
    2.1712   -1.9700    2.9041 H   0  0  0  0  0  0  0  0  0  0  0  0
    3.4762   -1.4015    1.8454 H   0  0  0  0  0  0  0  0  0  0  0  0
    1.8701    0.7927    1.8370 H   0  0  0  0  0  0  0  0  0  0  0  0
   -1.1147    1.8489    0.0050 H   0  0  0  0  0  0  0  0  0  0  0  0
    0.5047    1.7439    0.9459 H   0  0  0  0  0  0  0  0  0  0  0  0
   -1.5617   -1.8277    0.1659 H   0  0  0  0  0  0  0  0  0  0  0  0
   -3.4913   -2.2077   -0.8476 H   0  0  0  0  0  0  0  0  0  0  0  0
   -4.6770   -0.8513   -0.7071 H   0  0  0  0  0  0  0  0  0  0  0  0
   -3.7051   -1.1014   -2.2632 H   0  0  0  0  0  0  0  0  0  0  0  0
  1  2  1  0
  1 11  1  0
  1 12  1  0
  1 13  1  0
  2  3  1  0
  2 14  1  0
  3  4  2  0
  3  5  1  0
  5  6  2  3
  5  7  1  0
  6 15  1  0
  6 16  1  0
  7  8  1  0
  7 17  1  0
  8  9  1  0
  8 10  2  0
  9 18  1  0
  9 19  1  0
  9 20  1  0
M  END

> <RosettaParamsInstructions>
M  ROOT 7
M  POLY_N_BB 7
M  POLY_CA_BB 5
M  POLY_C_BB 3
M  POLY_O_BB 4
M  POLY_IGNORE 1 10 9 14 11 12 13 18 19 20
M  POLY_UPPER 2
M  POLY_LOWER 8
M  POLY_CHG 0
M  POLY_PROPERTIES PROTEIN POLYMER ALPHA_AA ALIPHATIC
M  END

$$$$
DHA_new
     RDKit          3D

 20 19  0  0  0  0  0  0  0  0999 V2000
    2.6238   -1.0631    2.6392 C   0  0  0  0  0  0  0  0  0  0  0  0
    1.6948   -0.2234    1.8649 N   0  0  0  0  0  0  0  0  0  0  0  0
    0.5492   -0.8262    1.3320 C   0  0  0  0  0  0  0  0  0  0  0  0
    0.3489   -2.0514    1.5262 O   0  0  0  0  0  0  0  0  0  0  0  0
   -0.4448   -0.0747    0.5430 C   0  0  0  0  0  0  0  0  0  0  0  0
   -0.2577    1.2012    0.3284 C   0  0  0  0  0  0  0  0  0  0  0  0
   -1.5798   -0.7359    0.0333 N   0  0  0  0  0  0  0  0  0  0  0  0
   -2.6322   -0.2092   -0.7311 C   0  0  0  0  0  0  0  0  0  0  0  0
   -3.7272   -1.1652   -1.1418 C   0  0  0  0  0  0  0  0  0  0  0  0
   -2.7470    0.9627   -1.0996 O   0  0  0  0  0  0  0  0  0  0  0  0
    1.9773   -1.8224    3.1485 H   0  0  0  0  0  0  0  0  0  0  0  0
    3.3621   -1.5294    1.9693 H   0  0  0  0  0  0  0  0  0  0  0  0
    3.0780   -0.4207    3.3958 H   0  0  0  0  0  0  0  0  0  0  0  0
    1.9541    0.7682    1.7619 H   0  0  0  0  0  0  0  0  0  0  0  0
   -0.9286    1.8043   -0.2287 H   0  0  0  0  0  0  0  0  0  0  0  0
    0.6270    1.7342    0.7226 H   0  0  0  0  0  0  0  0  0  0  0  0
   -1.6146   -1.7834    0.2807 H   0  0  0  0  0  0  0  0  0  0  0  0
   -4.2327   -0.7934   -2.0406 H   0  0  0  0  0  0  0  0  0  0  0  0
   -3.2703   -2.1681   -1.3085 H   0  0  0  0  0  0  0  0  0  0  0  0
   -4.3869   -1.2565   -0.2546 H   0  0  0  0  0  0  0  0  0  0  0  0
  1  2  1  0
  1 11  1  0
  1 12  1  0
  1 13  1  0
  2  3  1  0
  2 14  1  0
  3  4  2  0
  3  5  1  0
  5  6  2  3
  5  7  1  0
  6 15  1  0
  6 16  1  0
  7  8  1  0
  7 17  1  0
  8  9  1  0
  8 10  2  0
  9 18  1  0
  9 19  1  0
  9 20  1  0
M  END

> <RosettaParamsInstructions>
M  ROOT 7
M  POLY_N_BB 7
M  POLY_CA_BB 5
M  POLY_C_BB 3
M  POLY_O_BB 4
M  POLY_IGNORE 1 10 9 14 11 12 13 18 19 20
M  POLY_UPPER 2
M  POLY_LOWER 8
M  POLY_CHG 0
M  POLY_PROPERTIES PROTEIN POLYMER ALPHA_AA ALIPHATIC
M  END

$$$$
DHA_new
     RDKit          3D

 20 19  0  0  0  0  0  0  0  0999 V2000
    2.7112   -1.0320    2.5888 C   0  0  0  0  0  0  0  0  0  0  0  0
    1.6948   -0.2631    1.8659 N   0  0  0  0  0  0  0  0  0  0  0  0
    0.5670   -0.8501    1.3032 C   0  0  0  0  0  0  0  0  0  0  0  0
    0.4156   -2.0920    1.4211 O   0  0  0  0  0  0  0  0  0  0  0  0
   -0.4544   -0.0817    0.5774 C   0  0  0  0  0  0  0  0  0  0  0  0
   -0.2914    1.2140    0.4575 C   0  0  0  0  0  0  0  0  0  0  0  0
   -1.5692   -0.7402    0.0342 N   0  0  0  0  0  0  0  0  0  0  0  0
   -2.6551   -0.2422   -0.6846 C   0  0  0  0  0  0  0  0  0  0  0  0
   -3.7590   -1.1358   -1.1824 C   0  0  0  0  0  0  0  0  0  0  0  0
   -2.8042    0.9654   -0.9727 O   0  0  0  0  0  0  0  0  0  0  0  0
    2.2203   -1.9448    2.9850 H   0  0  0  0  0  0  0  0  0  0  0  0
    3.5306   -1.3593    1.9333 H   0  0  0  0  0  0  0  0  0  0  0  0
    3.0345   -0.4441    3.4581 H   0  0  0  0  0  0  0  0  0  0  0  0
    1.8737    0.7467    1.8027 H   0  0  0  0  0  0  0  0  0  0  0  0
    0.5466    1.7668    0.8562 H   0  0  0  0  0  0  0  0  0  0  0  0
   -1.0215    1.7982   -0.0672 H   0  0  0  0  0  0  0  0  0  0  0  0
   -1.5768   -1.8126    0.2080 H   0  0  0  0  0  0  0  0  0  0  0  0
   -4.1442   -0.8082   -2.1574 H   0  0  0  0  0  0  0  0  0  0  0  0
   -4.5352   -1.1614   -0.3826 H   0  0  0  0  0  0  0  0  0  0  0  0
   -3.3898   -2.1757   -1.3037 H   0  0  0  0  0  0  0  0  0  0  0  0
  1  2  1  0
  1 11  1  0
  1 12  1  0
  1 13  1  0
  2  3  1  0
  2 14  1  0
  3  4  2  0
  3  5  1  0
  5  6  2  3
  5  7  1  0
  6 15  1  0
  6 16  1  0
  7  8  1  0
  7 17  1  0
  8  9  1  0
  8 10  2  0
  9 18  1  0
  9 19  1  0
  9 20  1  0
M  END

> <RosettaParamsInstructions>
M  ROOT 7
M  POLY_N_BB 7
M  POLY_CA_BB 5
M  POLY_C_BB 3
M  POLY_O_BB 4
M  POLY_IGNORE 1 10 9 14 11 12 13 18 19 20
M  POLY_UPPER 2
M  POLY_LOWER 8
M  POLY_CHG 0
M  POLY_PROPERTIES PROTEIN POLYMER ALPHA_AA ALIPHATIC
M  END

$$$$
DHA_new
     RDKit          3D

 20 19  0  0  0  0  0  0  0  0999 V2000
    2.6872   -1.0595    2.5870 C   0  0  0  0  0  0  0  0  0  0  0  0
    1.6905   -0.2469    1.8723 N   0  0  0  0  0  0  0  0  0  0  0  0
    0.5508   -0.8332    1.2968 C   0  0  0  0  0  0  0  0  0  0  0  0
    0.4346   -2.0870    1.4285 O   0  0  0  0  0  0  0  0  0  0  0  0
   -0.4690   -0.0588    0.5747 C   0  0  0  0  0  0  0  0  0  0  0  0
   -0.3559    1.2332    0.4351 C   0  0  0  0  0  0  0  0  0  0  0  0
   -1.5622   -0.7855    0.0489 N   0  0  0  0  0  0  0  0  0  0  0  0
   -2.6358   -0.2514   -0.6665 C   0  0  0  0  0  0  0  0  0  0  0  0
   -3.7418   -1.1571   -1.1713 C   0  0  0  0  0  0  0  0  0  0  0  0
   -2.7845    0.9519   -0.9456 O   0  0  0  0  0  0  0  0  0  0  0  0
    3.7082   -0.8199    2.2224 H   0  0  0  0  0  0  0  0  0  0  0  0
    2.6462   -0.8414    3.6563 H   0  0  0  0  0  0  0  0  0  0  0  0
    2.4928   -2.1236    2.4305 H   0  0  0  0  0  0  0  0  0  0  0  0
    1.8516    0.7612    1.8062 H   0  0  0  0  0  0  0  0  0  0  0  0
   -1.0427    1.8675   -0.0692 H   0  0  0  0  0  0  0  0  0  0  0  0
    0.5263    1.7275    0.8742 H   0  0  0  0  0  0  0  0  0  0  0  0
   -1.5780   -1.8485    0.2091 H   0  0  0  0  0  0  0  0  0  0  0  0
   -3.6018   -1.3633   -2.2465 H   0  0  0  0  0  0  0  0  0  0  0  0
   -4.6973   -0.6341   -1.0121 H   0  0  0  0  0  0  0  0  0  0  0  0
   -3.7256   -2.0837   -0.5898 H   0  0  0  0  0  0  0  0  0  0  0  0
  1  2  1  0
  1 11  1  0
  1 12  1  0
  1 13  1  0
  2  3  1  0
  2 14  1  0
  3  4  2  0
  3  5  1  0
  5  6  2  3
  5  7  1  0
  6 15  1  0
  6 16  1  0
  7  8  1  0
  7 17  1  0
  8  9  1  0
  8 10  2  0
  9 18  1  0
  9 19  1  0
  9 20  1  0
M  END

> <RosettaParamsInstructions>
M  ROOT 7
M  POLY_N_BB 7
M  POLY_CA_BB 5
M  POLY_C_BB 3
M  POLY_O_BB 4
M  POLY_IGNORE 1 10 9 14 11 12 13 18 19 20
M  POLY_UPPER 2
M  POLY_LOWER 8
M  POLY_CHG 0
M  POLY_PROPERTIES PROTEIN POLYMER ALPHA_AA ALIPHATIC
M  END

$$$$
DHA_new
     RDKit          3D

 20 19  0  0  0  0  0  0  0  0999 V2000
    2.6832   -1.0696    2.5919 C   0  0  0  0  0  0  0  0  0  0  0  0
    1.6917   -0.2506    1.8714 N   0  0  0  0  0  0  0  0  0  0  0  0
    0.5511   -0.8184    1.2965 C   0  0  0  0  0  0  0  0  0  0  0  0
    0.3737   -2.0667    1.4021 O   0  0  0  0  0  0  0  0  0  0  0  0
   -0.4570   -0.0503    0.5748 C   0  0  0  0  0  0  0  0  0  0  0  0
   -0.3234    1.2359    0.4370 C   0  0  0  0  0  0  0  0  0  0  0  0
   -1.5732   -0.7411    0.0348 N   0  0  0  0  0  0  0  0  0  0  0  0
   -2.6558   -0.2261   -0.6881 C   0  0  0  0  0  0  0  0  0  0  0  0
   -3.7246   -1.1907   -1.1541 C   0  0  0  0  0  0  0  0  0  0  0  0
   -2.8249    0.9774   -0.9898 O   0  0  0  0  0  0  0  0  0  0  0  0
    2.4552   -0.9230    3.6636 H   0  0  0  0  0  0  0  0  0  0  0  0
    2.5670   -2.1251    2.3203 H   0  0  0  0  0  0  0  0  0  0  0  0
    3.6930   -0.7487    2.3055 H   0  0  0  0  0  0  0  0  0  0  0  0
    1.9065    0.7504    1.8294 H   0  0  0  0  0  0  0  0  0  0  0  0
   -1.0453    1.8172   -0.0850 H   0  0  0  0  0  0  0  0  0  0  0  0
    0.5595    1.7279    0.8733 H   0  0  0  0  0  0  0  0  0  0  0  0
   -1.5739   -1.7892    0.2107 H   0  0  0  0  0  0  0  0  0  0  0  0
   -4.5100   -1.2230   -0.3643 H   0  0  0  0  0  0  0  0  0  0  0  0
   -3.2255   -2.1462   -1.3265 H   0  0  0  0  0  0  0  0  0  0  0  0
   -4.1736   -0.7924   -2.0626 H   0  0  0  0  0  0  0  0  0  0  0  0
  1  2  1  0
  1 11  1  0
  1 12  1  0
  1 13  1  0
  2  3  1  0
  2 14  1  0
  3  4  2  0
  3  5  1  0
  5  6  2  3
  5  7  1  0
  6 15  1  0
  6 16  1  0
  7  8  1  0
  7 17  1  0
  8  9  1  0
  8 10  2  0
  9 18  1  0
  9 19  1  0
  9 20  1  0
M  END

> <RosettaParamsInstructions>
M  ROOT 7
M  POLY_N_BB 7
M  POLY_CA_BB 5
M  POLY_C_BB 3
M  POLY_O_BB 4
M  POLY_IGNORE 1 10 9 14 11 12 13 18 19 20
M  POLY_UPPER 2
M  POLY_LOWER 8
M  POLY_CHG 0
M  POLY_PROPERTIES PROTEIN POLYMER ALPHA_AA ALIPHATIC
M  END

$$$$
DHA_new
     RDKit          3D

 20 19  0  0  0  0  0  0  0  0999 V2000
    2.6859   -1.0748    2.5691 C   0  0  0  0  0  0  0  0  0  0  0  0
    1.6877   -0.2522    1.8556 N   0  0  0  0  0  0  0  0  0  0  0  0
    0.5462   -0.8197    1.2863 C   0  0  0  0  0  0  0  0  0  0  0  0
    0.4111   -2.0759    1.4134 O   0  0  0  0  0  0  0  0  0  0  0  0
   -0.4451   -0.0491    0.5852 C   0  0  0  0  0  0  0  0  0  0  0  0
   -0.3268    1.2276    0.4450 C   0  0  0  0  0  0  0  0  0  0  0  0
   -1.5463   -0.7648    0.0635 N   0  0  0  0  0  0  0  0  0  0  0  0
   -2.6285   -0.2314   -0.6516 C   0  0  0  0  0  0  0  0  0  0  0  0
   -3.7225   -1.1525   -1.1355 C   0  0  0  0  0  0  0  0  0  0  0  0
   -2.8003    0.9686   -0.9475 O   0  0  0  0  0  0  0  0  0  0  0  0
    3.3668   -1.4975    1.8170 H   0  0  0  0  0  0  0  0  0  0  0  0
    3.1874   -0.4224    3.3138 H   0  0  0  0  0  0  0  0  0  0  0  0
    2.1416   -1.8784    3.1369 H   0  0  0  0  0  0  0  0  0  0  0  0
    1.8609    0.7693    1.7890 H   0  0  0  0  0  0  0  0  0  0  0  0
    0.5470    1.7429    0.8675 H   0  0  0  0  0  0  0  0  0  0  0  0
   -1.0622    1.8261   -0.0795 H   0  0  0  0  0  0  0  0  0  0  0  0
   -1.5974   -1.8295    0.2081 H   0  0  0  0  0  0  0  0  0  0  0  0
   -4.0500   -0.8320   -2.1467 H   0  0  0  0  0  0  0  0  0  0  0  0
   -4.5440   -1.1242   -0.3942 H   0  0  0  0  0  0  0  0  0  0  0  0
   -3.3180   -2.1823   -1.2544 H   0  0  0  0  0  0  0  0  0  0  0  0
  1  2  1  0
  1 11  1  0
  1 12  1  0
  1 13  1  0
  2  3  1  0
  2 14  1  0
  3  4  2  0
  3  5  1  0
  5  6  2  3
  5  7  1  0
  6 15  1  0
  6 16  1  0
  7  8  1  0
  7 17  1  0
  8  9  1  0
  8 10  2  0
  9 18  1  0
  9 19  1  0
  9 20  1  0
M  END

> <RosettaParamsInstructions>
M  ROOT 7
M  POLY_N_BB 7
M  POLY_CA_BB 5
M  POLY_C_BB 3
M  POLY_O_BB 4
M  POLY_IGNORE 1 10 9 14 11 12 13 18 19 20
M  POLY_UPPER 2
M  POLY_LOWER 8
M  POLY_CHG 0
M  POLY_PROPERTIES PROTEIN POLYMER ALPHA_AA ALIPHATIC
M  END

$$$$
DHA_new
     RDKit          3D

 20 19  0  0  0  0  0  0  0  0999 V2000
    2.6480   -1.0683    2.5672 C   0  0  0  0  0  0  0  0  0  0  0  0
    1.6799   -0.2292    1.8345 N   0  0  0  0  0  0  0  0  0  0  0  0
    0.5519   -0.8390    1.3023 C   0  0  0  0  0  0  0  0  0  0  0  0
    0.3855   -2.0894    1.4590 O   0  0  0  0  0  0  0  0  0  0  0  0
   -0.4684   -0.0763    0.5546 C   0  0  0  0  0  0  0  0  0  0  0  0
   -0.2887    1.2017    0.4001 C   0  0  0  0  0  0  0  0  0  0  0  0
   -1.5926   -0.7730    0.0424 N   0  0  0  0  0  0  0  0  0  0  0  0
   -2.6316   -0.2166   -0.6744 C   0  0  0  0  0  0  0  0  0  0  0  0
   -3.7377   -1.1653   -1.1249 C   0  0  0  0  0  0  0  0  0  0  0  0
   -2.7248    0.9860   -0.9723 O   0  0  0  0  0  0  0  0  0  0  0  0
    2.2224   -2.0692    2.7560 H   0  0  0  0  0  0  0  0  0  0  0  0
    2.8405   -0.5389    3.5198 H   0  0  0  0  0  0  0  0  0  0  0  0
    3.5770   -1.1297    1.9865 H   0  0  0  0  0  0  0  0  0  0  0  0
    1.9479    0.7662    1.7885 H   0  0  0  0  0  0  0  0  0  0  0  0
    0.5906    1.6787    0.8146 H   0  0  0  0  0  0  0  0  0  0  0  0
   -0.9615    1.8432   -0.1211 H   0  0  0  0  0  0  0  0  0  0  0  0
   -1.6082   -1.8199    0.2454 H   0  0  0  0  0  0  0  0  0  0  0  0
   -3.8357   -1.9649   -0.3683 H   0  0  0  0  0  0  0  0  0  0  0  0
   -3.5191   -1.5806   -2.1092 H   0  0  0  0  0  0  0  0  0  0  0  0
   -4.6820   -0.5676   -1.1600 H   0  0  0  0  0  0  0  0  0  0  0  0
  1  2  1  0
  1 11  1  0
  1 12  1  0
  1 13  1  0
  2  3  1  0
  2 14  1  0
  3  4  2  0
  3  5  1  0
  5  6  2  3
  5  7  1  0
  6 15  1  0
  6 16  1  0
  7  8  1  0
  7 17  1  0
  8  9  1  0
  8 10  2  0
  9 18  1  0
  9 19  1  0
  9 20  1  0
M  END

> <RosettaParamsInstructions>
M  ROOT 7
M  POLY_N_BB 7
M  POLY_CA_BB 5
M  POLY_C_BB 3
M  POLY_O_BB 4
M  POLY_IGNORE 1 10 9 14 11 12 13 18 19 20
M  POLY_UPPER 2
M  POLY_LOWER 8
M  POLY_CHG 0
M  POLY_PROPERTIES PROTEIN POLYMER ALPHA_AA ALIPHATIC
M  END

$$$$
DHA_new
     RDKit          3D

 20 19  0  0  0  0  0  0  0  0999 V2000
    2.6537   -1.0905    2.5671 C   0  0  0  0  0  0  0  0  0  0  0  0
    1.6971   -0.2059    1.8590 N   0  0  0  0  0  0  0  0  0  0  0  0
    0.5667   -0.8237    1.3090 C   0  0  0  0  0  0  0  0  0  0  0  0
    0.3923   -2.0628    1.4213 O   0  0  0  0  0  0  0  0  0  0  0  0
   -0.4543   -0.0596    0.5842 C   0  0  0  0  0  0  0  0  0  0  0  0
   -0.3051    1.2248    0.4494 C   0  0  0  0  0  0  0  0  0  0  0  0
   -1.5794   -0.7401    0.0481 N   0  0  0  0  0  0  0  0  0  0  0  0
   -2.6543   -0.2289   -0.6643 C   0  0  0  0  0  0  0  0  0  0  0  0
   -3.7403   -1.1729   -1.1322 C   0  0  0  0  0  0  0  0  0  0  0  0
   -2.8232    0.9690   -0.9690 O   0  0  0  0  0  0  0  0  0  0  0  0
    2.3204   -1.1697    3.6221 H   0  0  0  0  0  0  0  0  0  0  0  0
    2.6416   -2.0688    2.0819 H   0  0  0  0  0  0  0  0  0  0  0  0
    3.6712   -0.6248    2.5238 H   0  0  0  0  0  0  0  0  0  0  0  0
    1.9365    0.8081    1.8232 H   0  0  0  0  0  0  0  0  0  0  0  0
   -1.0078    1.8502   -0.0666 H   0  0  0  0  0  0  0  0  0  0  0  0
    0.5539    1.7430    0.8590 H   0  0  0  0  0  0  0  0  0  0  0  0
   -1.5791   -1.7967    0.2305 H   0  0  0  0  0  0  0  0  0  0  0  0
   -3.2379   -2.1421   -1.3203 H   0  0  0  0  0  0  0  0  0  0  0  0
   -4.1141   -0.8188   -2.1007 H   0  0  0  0  0  0  0  0  0  0  0  0
   -4.5443   -1.2421   -0.3845 H   0  0  0  0  0  0  0  0  0  0  0  0
  1  2  1  0
  1 11  1  0
  1 12  1  0
  1 13  1  0
  2  3  1  0
  2 14  1  0
  3  4  2  0
  3  5  1  0
  5  6  2  3
  5  7  1  0
  6 15  1  0
  6 16  1  0
  7  8  1  0
  7 17  1  0
  8  9  1  0
  8 10  2  0
  9 18  1  0
  9 19  1  0
  9 20  1  0
M  END

> <RosettaParamsInstructions>
M  ROOT 7
M  POLY_N_BB 7
M  POLY_CA_BB 5
M  POLY_C_BB 3
M  POLY_O_BB 4
M  POLY_IGNORE 1 10 9 14 11 12 13 18 19 20
M  POLY_UPPER 2
M  POLY_LOWER 8
M  POLY_CHG 0
M  POLY_PROPERTIES PROTEIN POLYMER ALPHA_AA ALIPHATIC
M  END

$$$$
DHA_new
     RDKit          3D

 20 19  0  0  0  0  0  0  0  0999 V2000
    2.7057   -1.0611    2.5469 C   0  0  0  0  0  0  0  0  0  0  0  0
    1.7277   -0.2528    1.8370 N   0  0  0  0  0  0  0  0  0  0  0  0
    0.5784   -0.8175    1.2953 C   0  0  0  0  0  0  0  0  0  0  0  0
    0.4111   -2.0664    1.4418 O   0  0  0  0  0  0  0  0  0  0  0  0
   -0.4612   -0.0549    0.5593 C   0  0  0  0  0  0  0  0  0  0  0  0
   -0.2828    1.2363    0.4108 C   0  0  0  0  0  0  0  0  0  0  0  0
   -1.5916   -0.7331    0.0502 N   0  0  0  0  0  0  0  0  0  0  0  0
   -2.6790   -0.2380   -0.6612 C   0  0  0  0  0  0  0  0  0  0  0  0
   -3.7973   -1.1613   -1.1160 C   0  0  0  0  0  0  0  0  0  0  0  0
   -2.8452    0.9535   -0.9855 O   0  0  0  0  0  0  0  0  0  0  0  0
    2.8149   -2.0681    2.0639 H   0  0  0  0  0  0  0  0  0  0  0  0
    2.3937   -1.2341    3.5837 H   0  0  0  0  0  0  0  0  0  0  0  0
    3.7029   -0.5781    2.5473 H   0  0  0  0  0  0  0  0  0  0  0  0
    1.9372    0.7524    1.7614 H   0  0  0  0  0  0  0  0  0  0  0  0
    0.5963    1.7427    0.8108 H   0  0  0  0  0  0  0  0  0  0  0  0
   -1.0377    1.8035   -0.1262 H   0  0  0  0  0  0  0  0  0  0  0  0
   -1.5885   -1.7917    0.2565 H   0  0  0  0  0  0  0  0  0  0  0  0
   -3.6839   -2.1080   -0.5527 H   0  0  0  0  0  0  0  0  0  0  0  0
   -4.7352   -0.6725   -0.7778 H   0  0  0  0  0  0  0  0  0  0  0  0
   -3.7720   -1.3030   -2.2045 H   0  0  0  0  0  0  0  0  0  0  0  0
  1  2  1  0
  1 11  1  0
  1 12  1  0
  1 13  1  0
  2  3  1  0
  2 14  1  0
  3  4  2  0
  3  5  1  0
  5  6  2  3
  5  7  1  0
  6 15  1  0
  6 16  1  0
  7  8  1  0
  7 17  1  0
  8  9  1  0
  8 10  2  0
  9 18  1  0
  9 19  1  0
  9 20  1  0
M  END

> <RosettaParamsInstructions>
M  ROOT 7
M  POLY_N_BB 7
M  POLY_CA_BB 5
M  POLY_C_BB 3
M  POLY_O_BB 4
M  POLY_IGNORE 1 10 9 14 11 12 13 18 19 20
M  POLY_UPPER 2
M  POLY_LOWER 8
M  POLY_CHG 0
M  POLY_PROPERTIES PROTEIN POLYMER ALPHA_AA ALIPHATIC
M  END

$$$$
DHA_new
     RDKit          3D

 20 19  0  0  0  0  0  0  0  0999 V2000
    2.6329   -1.0197    2.6746 C   0  0  0  0  0  0  0  0  0  0  0  0
    1.6883   -0.2505    1.8808 N   0  0  0  0  0  0  0  0  0  0  0  0
    0.5378   -0.8307    1.3529 C   0  0  0  0  0  0  0  0  0  0  0  0
    0.3091   -2.0680    1.5725 O   0  0  0  0  0  0  0  0  0  0  0  0
   -0.4471   -0.0692    0.5370 C   0  0  0  0  0  0  0  0  0  0  0  0
   -0.2612    1.1938    0.2840 C   0  0  0  0  0  0  0  0  0  0  0  0
   -1.5671   -0.7506    0.0568 N   0  0  0  0  0  0  0  0  0  0  0  0
   -2.6063   -0.2411   -0.7189 C   0  0  0  0  0  0  0  0  0  0  0  0
   -3.7581   -1.1445   -1.1539 C   0  0  0  0  0  0  0  0  0  0  0  0
   -2.7423    0.9301   -1.1399 O   0  0  0  0  0  0  0  0  0  0  0  0
    2.0979   -1.7786    3.3114 H   0  0  0  0  0  0  0  0  0  0  0  0
    3.3362   -1.6049    2.0447 H   0  0  0  0  0  0  0  0  0  0  0  0
    3.2395   -0.3849    3.3386 H   0  0  0  0  0  0  0  0  0  0  0  0
    1.9400    0.7458    1.7448 H   0  0  0  0  0  0  0  0  0  0  0  0
   -0.9373    1.7679   -0.2909 H   0  0  0  0  0  0  0  0  0  0  0  0
    0.6077    1.7089    0.6606 H   0  0  0  0  0  0  0  0  0  0  0  0
   -1.6473   -1.7886    0.3085 H   0  0  0  0  0  0  0  0  0  0  0  0
   -3.8086   -1.0937   -2.2399 H   0  0  0  0  0  0  0  0  0  0  0  0
   -3.5318   -2.1603   -0.8073 H   0  0  0  0  0  0  0  0  0  0  0  0
   -4.6889   -0.8134   -0.6754 H   0  0  0  0  0  0  0  0  0  0  0  0
  1  2  1  0
  1 11  1  0
  1 12  1  0
  1 13  1  0
  2  3  1  0
  2 14  1  0
  3  4  2  0
  3  5  1  0
  5  6  2  3
  5  7  1  0
  6 15  1  0
  6 16  1  0
  7  8  1  0
  7 17  1  0
  8  9  1  0
  8 10  2  0
  9 18  1  0
  9 19  1  0
  9 20  1  0
M  END

> <RosettaParamsInstructions>
M  ROOT 7
M  POLY_N_BB 7
M  POLY_CA_BB 5
M  POLY_C_BB 3
M  POLY_O_BB 4
M  POLY_IGNORE 1 10 9 14 11 12 13 18 19 20
M  POLY_UPPER 2
M  POLY_LOWER 8
M  POLY_CHG 0
M  POLY_PROPERTIES PROTEIN POLYMER ALPHA_AA ALIPHATIC
M  END

$$$$
DHA_new
     RDKit          3D

 20 19  0  0  0  0  0  0  0  0999 V2000
    2.6697   -1.0794    2.5314 C   0  0  0  0  0  0  0  0  0  0  0  0
    1.6837   -0.2068    1.8605 N   0  0  0  0  0  0  0  0  0  0  0  0
    0.5831   -0.8460    1.2901 C   0  0  0  0  0  0  0  0  0  0  0  0
    0.4530   -2.1112    1.3543 O   0  0  0  0  0  0  0  0  0  0  0  0
   -0.4662   -0.0567    0.5916 C   0  0  0  0  0  0  0  0  0  0  0  0
   -0.3735    1.2294    0.5034 C   0  0  0  0  0  0  0  0  0  0  0  0
   -1.5597   -0.7793    0.0346 N   0  0  0  0  0  0  0  0  0  0  0  0
   -2.6310   -0.2294   -0.6502 C   0  0  0  0  0  0  0  0  0  0  0  0
   -3.7147   -1.1653   -1.1780 C   0  0  0  0  0  0  0  0  0  0  0  0
   -2.7916    0.9648   -0.8758 O   0  0  0  0  0  0  0  0  0  0  0  0
    2.2662   -2.0751    2.7344 H   0  0  0  0  0  0  0  0  0  0  0  0
    3.5730   -1.2060    1.8903 H   0  0  0  0  0  0  0  0  0  0  0  0
    2.9515   -0.5274    3.4621 H   0  0  0  0  0  0  0  0  0  0  0  0
    1.8711    0.7990    1.8584 H   0  0  0  0  0  0  0  0  0  0  0  0
    0.4920    1.7330    0.9518 H   0  0  0  0  0  0  0  0  0  0  0  0
   -1.1003    1.8493    0.0115 H   0  0  0  0  0  0  0  0  0  0  0  0
   -1.5600   -1.8520    0.1531 H   0  0  0  0  0  0  0  0  0  0  0  0
   -3.5659   -2.1852   -0.7656 H   0  0  0  0  0  0  0  0  0  0  0  0
   -4.6572   -0.7729   -0.7431 H   0  0  0  0  0  0  0  0  0  0  0  0
   -3.7296   -1.1351   -2.2741 H   0  0  0  0  0  0  0  0  0  0  0  0
  1  2  1  0
  1 11  1  0
  1 12  1  0
  1 13  1  0
  2  3  1  0
  2 14  1  0
  3  4  2  0
  3  5  1  0
  5  6  2  3
  5  7  1  0
  6 15  1  0
  6 16  1  0
  7  8  1  0
  7 17  1  0
  8  9  1  0
  8 10  2  0
  9 18  1  0
  9 19  1  0
  9 20  1  0
M  END

> <RosettaParamsInstructions>
M  ROOT 7
M  POLY_N_BB 7
M  POLY_CA_BB 5
M  POLY_C_BB 3
M  POLY_O_BB 4
M  POLY_IGNORE 1 10 9 14 11 12 13 18 19 20
M  POLY_UPPER 2
M  POLY_LOWER 8
M  POLY_CHG 0
M  POLY_PROPERTIES PROTEIN POLYMER ALPHA_AA ALIPHATIC
M  END

$$$$
DHA_new
     RDKit          3D

 20 19  0  0  0  0  0  0  0  0999 V2000
    2.5997   -1.0504    2.6787 C   0  0  0  0  0  0  0  0  0  0  0  0
    1.7269   -0.1926    1.8395 N   0  0  0  0  0  0  0  0  0  0  0  0
    0.5526   -0.8070    1.3697 C   0  0  0  0  0  0  0  0  0  0  0  0
    0.2782   -2.0221    1.6595 O   0  0  0  0  0  0  0  0  0  0  0  0
   -0.4216   -0.0831    0.5200 C   0  0  0  0  0  0  0  0  0  0  0  0
   -0.1600    1.1658    0.2100 C   0  0  0  0  0  0  0  0  0  0  0  0
   -1.5808   -0.7515    0.0793 N   0  0  0  0  0  0  0  0  0  0  0  0
   -2.6231   -0.2662   -0.7219 C   0  0  0  0  0  0  0  0  0  0  0  0
   -3.7989   -1.1531   -1.0910 C   0  0  0  0  0  0  0  0  0  0  0  0
   -2.6820    0.8944   -1.1897 O   0  0  0  0  0  0  0  0  0  0  0  0
    2.9755   -1.8252    1.9797 H   0  0  0  0  0  0  0  0  0  0  0  0
    2.0495   -1.4818    3.5164 H   0  0  0  0  0  0  0  0  0  0  0  0
    3.4507   -0.4714    3.0555 H   0  0  0  0  0  0  0  0  0  0  0  0
    2.0226    0.7752    1.6546 H   0  0  0  0  0  0  0  0  0  0  0  0
    0.7347    1.6858    0.5485 H   0  0  0  0  0  0  0  0  0  0  0  0
   -0.8076    1.7743   -0.4024 H   0  0  0  0  0  0  0  0  0  0  0  0
   -1.6902   -1.7696    0.3938 H   0  0  0  0  0  0  0  0  0  0  0  0
   -3.5724   -1.7063   -2.0097 H   0  0  0  0  0  0  0  0  0  0  0  0
   -3.9428   -1.8337   -0.2028 H   0  0  0  0  0  0  0  0  0  0  0  0
   -4.7173   -0.5336   -1.1469 H   0  0  0  0  0  0  0  0  0  0  0  0
  1  2  1  0
  1 11  1  0
  1 12  1  0
  1 13  1  0
  2  3  1  0
  2 14  1  0
  3  4  2  0
  3  5  1  0
  5  6  2  3
  5  7  1  0
  6 15  1  0
  6 16  1  0
  7  8  1  0
  7 17  1  0
  8  9  1  0
  8 10  2  0
  9 18  1  0
  9 19  1  0
  9 20  1  0
M  END

> <RosettaParamsInstructions>
M  ROOT 7
M  POLY_N_BB 7
M  POLY_CA_BB 5
M  POLY_C_BB 3
M  POLY_O_BB 4
M  POLY_IGNORE 1 10 9 14 11 12 13 18 19 20
M  POLY_UPPER 2
M  POLY_LOWER 8
M  POLY_CHG 0
M  POLY_PROPERTIES PROTEIN POLYMER ALPHA_AA ALIPHATIC
M  END

$$$$
DHA_new
     RDKit          3D

 20 19  0  0  0  0  0  0  0  0999 V2000
    2.6837   -1.0480    2.5541 C   0  0  0  0  0  0  0  0  0  0  0  0
    1.6892   -0.2005    1.8575 N   0  0  0  0  0  0  0  0  0  0  0  0
    0.5879   -0.8509    1.3018 C   0  0  0  0  0  0  0  0  0  0  0  0
    0.4453   -2.1068    1.3890 O   0  0  0  0  0  0  0  0  0  0  0  0
   -0.4660   -0.1147    0.5856 C   0  0  0  0  0  0  0  0  0  0  0  0
   -0.3594    1.1843    0.4716 C   0  0  0  0  0  0  0  0  0  0  0  0
   -1.5662   -0.7992    0.0353 N   0  0  0  0  0  0  0  0  0  0  0  0
   -2.6296   -0.2360   -0.6630 C   0  0  0  0  0  0  0  0  0  0  0  0
   -3.7342   -1.1624   -1.1832 C   0  0  0  0  0  0  0  0  0  0  0  0
   -2.8032    0.9806   -0.9297 O   0  0  0  0  0  0  0  0  0  0  0  0
    3.6891   -0.5913    2.4674 H   0  0  0  0  0  0  0  0  0  0  0  0
    2.4091   -1.0784    3.6347 H   0  0  0  0  0  0  0  0  0  0  0  0
    2.6730   -2.0499    2.1016 H   0  0  0  0  0  0  0  0  0  0  0  0
    1.9091    0.8003    1.8504 H   0  0  0  0  0  0  0  0  0  0  0  0
   -1.0545    1.8258   -0.0219 H   0  0  0  0  0  0  0  0  0  0  0  0
    0.5103    1.6735    0.9138 H   0  0  0  0  0  0  0  0  0  0  0  0
   -1.5604   -1.8589    0.1825 H   0  0  0  0  0  0  0  0  0  0  0  0
   -4.6904   -0.6219   -1.0470 H   0  0  0  0  0  0  0  0  0  0  0  0
   -3.5928   -1.3674   -2.2410 H   0  0  0  0  0  0  0  0  0  0  0  0
   -3.7465   -2.0307   -0.5186 H   0  0  0  0  0  0  0  0  0  0  0  0
  1  2  1  0
  1 11  1  0
  1 12  1  0
  1 13  1  0
  2  3  1  0
  2 14  1  0
  3  4  2  0
  3  5  1  0
  5  6  2  3
  5  7  1  0
  6 15  1  0
  6 16  1  0
  7  8  1  0
  7 17  1  0
  8  9  1  0
  8 10  2  0
  9 18  1  0
  9 19  1  0
  9 20  1  0
M  END

> <RosettaParamsInstructions>
M  ROOT 7
M  POLY_N_BB 7
M  POLY_CA_BB 5
M  POLY_C_BB 3
M  POLY_O_BB 4
M  POLY_IGNORE 1 10 9 14 11 12 13 18 19 20
M  POLY_UPPER 2
M  POLY_LOWER 8
M  POLY_CHG 0
M  POLY_PROPERTIES PROTEIN POLYMER ALPHA_AA ALIPHATIC
M  END

$$$$
DHA_new
     RDKit          3D

 20 19  0  0  0  0  0  0  0  0999 V2000
    2.7210   -1.0407    2.5628 C   0  0  0  0  0  0  0  0  0  0  0  0
    1.6753   -0.2585    1.8622 N   0  0  0  0  0  0  0  0  0  0  0  0
    0.5688   -0.8695    1.2876 C   0  0  0  0  0  0  0  0  0  0  0  0
    0.4410   -2.1133    1.3559 O   0  0  0  0  0  0  0  0  0  0  0  0
   -0.4786   -0.1198    0.5915 C   0  0  0  0  0  0  0  0  0  0  0  0
   -0.3388    1.1813    0.5245 C   0  0  0  0  0  0  0  0  0  0  0  0
   -1.5850   -0.8311    0.0295 N   0  0  0  0  0  0  0  0  0  0  0  0
   -2.6455   -0.2327   -0.6544 C   0  0  0  0  0  0  0  0  0  0  0  0
   -3.7463   -1.1459   -1.1910 C   0  0  0  0  0  0  0  0  0  0  0  0
   -2.7779    0.9973   -0.8703 O   0  0  0  0  0  0  0  0  0  0  0  0
    2.5009   -2.0978    2.3388 H   0  0  0  0  0  0  0  0  0  0  0  0
    3.6850   -0.7059    2.1292 H   0  0  0  0  0  0  0  0  0  0  0  0
    2.7108   -0.8096    3.6452 H   0  0  0  0  0  0  0  0  0  0  0  0
    1.8771    0.7569    1.8625 H   0  0  0  0  0  0  0  0  0  0  0  0
   -1.0423    1.8302    0.0402 H   0  0  0  0  0  0  0  0  0  0  0  0
    0.5059    1.7060    0.9577 H   0  0  0  0  0  0  0  0  0  0  0  0
   -1.5870   -1.9035    0.1498 H   0  0  0  0  0  0  0  0  0  0  0  0
   -4.7455   -0.7483   -0.8799 H   0  0  0  0  0  0  0  0  0  0  0  0
   -3.7105   -1.1309   -2.2857 H   0  0  0  0  0  0  0  0  0  0  0  0
   -3.6350   -2.1164   -0.7150 H   0  0  0  0  0  0  0  0  0  0  0  0
  1  2  1  0
  1 11  1  0
  1 12  1  0
  1 13  1  0
  2  3  1  0
  2 14  1  0
  3  4  2  0
  3  5  1  0
  5  6  2  3
  5  7  1  0
  6 15  1  0
  6 16  1  0
  7  8  1  0
  7 17  1  0
  8  9  1  0
  8 10  2  0
  9 18  1  0
  9 19  1  0
  9 20  1  0
M  END

> <RosettaParamsInstructions>
M  ROOT 7
M  POLY_N_BB 7
M  POLY_CA_BB 5
M  POLY_C_BB 3
M  POLY_O_BB 4
M  POLY_IGNORE 1 10 9 14 11 12 13 18 19 20
M  POLY_UPPER 2
M  POLY_LOWER 8
M  POLY_CHG 0
M  POLY_PROPERTIES PROTEIN POLYMER ALPHA_AA ALIPHATIC
M  END

$$$$
DHA_new
     RDKit          3D

 20 19  0  0  0  0  0  0  0  0999 V2000
    2.6629   -1.0623    2.5909 C   0  0  0  0  0  0  0  0  0  0  0  0
    1.6972   -0.2613    1.8270 N   0  0  0  0  0  0  0  0  0  0  0  0
    0.5210   -0.8293    1.3105 C   0  0  0  0  0  0  0  0  0  0  0  0
    0.3227   -2.0636    1.5286 O   0  0  0  0  0  0  0  0  0  0  0  0
   -0.4590   -0.0554    0.5458 C   0  0  0  0  0  0  0  0  0  0  0  0
   -0.2657    1.2170    0.3145 C   0  0  0  0  0  0  0  0  0  0  0  0
   -1.5903   -0.7456    0.0875 N   0  0  0  0  0  0  0  0  0  0  0  0
   -2.6495   -0.2159   -0.6567 C   0  0  0  0  0  0  0  0  0  0  0  0
   -3.7752   -1.1757   -1.0396 C   0  0  0  0  0  0  0  0  0  0  0  0
   -2.7331    0.9718   -1.0227 O   0  0  0  0  0  0  0  0  0  0  0  0
    3.4419   -1.3954    1.8655 H   0  0  0  0  0  0  0  0  0  0  0  0
    2.1366   -1.9504    2.9934 H   0  0  0  0  0  0  0  0  0  0  0  0
    3.0937   -0.4564    3.4142 H   0  0  0  0  0  0  0  0  0  0  0  0
    1.9531    0.7349    1.7055 H   0  0  0  0  0  0  0  0  0  0  0  0
    0.6468    1.7022    0.7033 H   0  0  0  0  0  0  0  0  0  0  0  0
   -0.9331    1.8510   -0.2350 H   0  0  0  0  0  0  0  0  0  0  0  0
   -1.6591   -1.7811    0.3260 H   0  0  0  0  0  0  0  0  0  0  0  0
   -4.1503   -0.8139   -2.0320 H   0  0  0  0  0  0  0  0  0  0  0  0
   -4.5599   -1.1696   -0.2707 H   0  0  0  0  0  0  0  0  0  0  0  0
   -3.3073   -2.1533   -1.2150 H   0  0  0  0  0  0  0  0  0  0  0  0
  1  2  1  0
  1 11  1  0
  1 12  1  0
  1 13  1  0
  2  3  1  0
  2 14  1  0
  3  4  2  0
  3  5  1  0
  5  6  2  3
  5  7  1  0
  6 15  1  0
  6 16  1  0
  7  8  1  0
  7 17  1  0
  8  9  1  0
  8 10  2  0
  9 18  1  0
  9 19  1  0
  9 20  1  0
M  END

> <RosettaParamsInstructions>
M  ROOT 7
M  POLY_N_BB 7
M  POLY_CA_BB 5
M  POLY_C_BB 3
M  POLY_O_BB 4
M  POLY_IGNORE 1 10 9 14 11 12 13 18 19 20
M  POLY_UPPER 2
M  POLY_LOWER 8
M  POLY_CHG 0
M  POLY_PROPERTIES PROTEIN POLYMER ALPHA_AA ALIPHATIC
M  END

$$$$
DHA_new
     RDKit          3D

 20 19  0  0  0  0  0  0  0  0999 V2000
    2.6890   -1.0440    2.5828 C   0  0  0  0  0  0  0  0  0  0  0  0
    1.6894   -0.2350    1.8605 N   0  0  0  0  0  0  0  0  0  0  0  0
    0.5612   -0.8264    1.3039 C   0  0  0  0  0  0  0  0  0  0  0  0
    0.4190   -2.0788    1.4364 O   0  0  0  0  0  0  0  0  0  0  0  0
   -0.4723   -0.0771    0.5720 C   0  0  0  0  0  0  0  0  0  0  0  0
   -0.3023    1.2168    0.4487 C   0  0  0  0  0  0  0  0  0  0  0  0
   -1.5763   -0.7851    0.0497 N   0  0  0  0  0  0  0  0  0  0  0  0
   -2.6524   -0.2743   -0.6661 C   0  0  0  0  0  0  0  0  0  0  0  0
   -3.7617   -1.1690   -1.1594 C   0  0  0  0  0  0  0  0  0  0  0  0
   -2.7726    0.9371   -0.9446 O   0  0  0  0  0  0  0  0  0  0  0  0
    2.1562   -1.8869    3.0737 H   0  0  0  0  0  0  0  0  0  0  0  0
    3.1648   -0.4420    3.3671 H   0  0  0  0  0  0  0  0  0  0  0  0
    3.3846   -1.4578    1.8408 H   0  0  0  0  0  0  0  0  0  0  0  0
    1.9039    0.7809    1.8109 H   0  0  0  0  0  0  0  0  0  0  0  0
   -1.0024    1.8400   -0.0670 H   0  0  0  0  0  0  0  0  0  0  0  0
    0.5571    1.7480    0.8588 H   0  0  0  0  0  0  0  0  0  0  0  0
   -1.5830   -1.8416    0.2274 H   0  0  0  0  0  0  0  0  0  0  0  0
   -4.6688   -0.8488   -0.6309 H   0  0  0  0  0  0  0  0  0  0  0  0
   -3.5089   -2.2316   -0.9718 H   0  0  0  0  0  0  0  0  0  0  0  0
   -3.8311   -0.9768   -2.2521 H   0  0  0  0  0  0  0  0  0  0  0  0
  1  2  1  0
  1 11  1  0
  1 12  1  0
  1 13  1  0
  2  3  1  0
  2 14  1  0
  3  4  2  0
  3  5  1  0
  5  6  2  3
  5  7  1  0
  6 15  1  0
  6 16  1  0
  7  8  1  0
  7 17  1  0
  8  9  1  0
  8 10  2  0
  9 18  1  0
  9 19  1  0
  9 20  1  0
M  END

> <RosettaParamsInstructions>
M  ROOT 7
M  POLY_N_BB 7
M  POLY_CA_BB 5
M  POLY_C_BB 3
M  POLY_O_BB 4
M  POLY_IGNORE 1 10 9 14 11 12 13 18 19 20
M  POLY_UPPER 2
M  POLY_LOWER 8
M  POLY_CHG 0
M  POLY_PROPERTIES PROTEIN POLYMER ALPHA_AA ALIPHATIC
M  END

$$$$
DHA_new
     RDKit          3D

 20 19  0  0  0  0  0  0  0  0999 V2000
    2.7430   -1.0648    2.4936 C   0  0  0  0  0  0  0  0  0  0  0  0
    1.6635   -0.2740    1.8949 N   0  0  0  0  0  0  0  0  0  0  0  0
    0.5811   -0.8469    1.2409 C   0  0  0  0  0  0  0  0  0  0  0  0
    0.5135   -2.1186    1.1517 O   0  0  0  0  0  0  0  0  0  0  0  0
   -0.4907   -0.0659    0.6463 C   0  0  0  0  0  0  0  0  0  0  0  0
   -0.4664    1.2387    0.7115 C   0  0  0  0  0  0  0  0  0  0  0  0
   -1.5572   -0.7429   -0.0025 N   0  0  0  0  0  0  0  0  0  0  0  0
   -2.6770   -0.2210   -0.6354 C   0  0  0  0  0  0  0  0  0  0  0  0
   -3.6648   -1.1968   -1.2499 C   0  0  0  0  0  0  0  0  0  0  0  0
   -2.9011    0.9951   -0.7185 O   0  0  0  0  0  0  0  0  0  0  0  0
    2.7831   -0.7488    3.5670 H   0  0  0  0  0  0  0  0  0  0  0  0
    3.6863   -0.8266    1.9909 H   0  0  0  0  0  0  0  0  0  0  0  0
    2.4471   -2.1293    2.3884 H   0  0  0  0  0  0  0  0  0  0  0  0
    1.7746    0.7442    1.9996 H   0  0  0  0  0  0  0  0  0  0  0  0
    0.3663    1.7471    1.2172 H   0  0  0  0  0  0  0  0  0  0  0  0
   -1.2109    1.8891    0.3027 H   0  0  0  0  0  0  0  0  0  0  0  0
   -1.4756   -1.8054    0.0035 H   0  0  0  0  0  0  0  0  0  0  0  0
   -4.6234   -1.1796   -0.7027 H   0  0  0  0  0  0  0  0  0  0  0  0
   -3.8448   -0.8347   -2.2749 H   0  0  0  0  0  0  0  0  0  0  0  0
   -3.2531   -2.2111   -1.2833 H   0  0  0  0  0  0  0  0  0  0  0  0
  1  2  1  0
  1 11  1  0
  1 12  1  0
  1 13  1  0
  2  3  1  0
  2 14  1  0
  3  4  2  0
  3  5  1  0
  5  6  2  3
  5  7  1  0
  6 15  1  0
  6 16  1  0
  7  8  1  0
  7 17  1  0
  8  9  1  0
  8 10  2  0
  9 18  1  0
  9 19  1  0
  9 20  1  0
M  END

> <RosettaParamsInstructions>
M  ROOT 7
M  POLY_N_BB 7
M  POLY_CA_BB 5
M  POLY_C_BB 3
M  POLY_O_BB 4
M  POLY_IGNORE 1 10 9 14 11 12 13 18 19 20
M  POLY_UPPER 2
M  POLY_LOWER 8
M  POLY_CHG 0
M  POLY_PROPERTIES PROTEIN POLYMER ALPHA_AA ALIPHATIC
M  END

$$$$
DHA_new
     RDKit          3D

 20 19  0  0  0  0  0  0  0  0999 V2000
    2.6810   -1.0870    2.5886 C   0  0  0  0  0  0  0  0  0  0  0  0
    1.7279   -0.2613    1.8347 N   0  0  0  0  0  0  0  0  0  0  0  0
    0.5550   -0.8169    1.3074 C   0  0  0  0  0  0  0  0  0  0  0  0
    0.3569   -2.0620    1.5117 O   0  0  0  0  0  0  0  0  0  0  0  0
   -0.4491   -0.0631    0.5428 C   0  0  0  0  0  0  0  0  0  0  0  0
   -0.2827    1.2137    0.3123 C   0  0  0  0  0  0  0  0  0  0  0  0
   -1.5794   -0.7816    0.0812 N   0  0  0  0  0  0  0  0  0  0  0  0
   -2.6363   -0.2455   -0.6581 C   0  0  0  0  0  0  0  0  0  0  0  0
   -3.7714   -1.1375   -1.0782 C   0  0  0  0  0  0  0  0  0  0  0  0
   -2.7377    0.9456   -1.0194 O   0  0  0  0  0  0  0  0  0  0  0  0
    3.5186   -1.3622    1.9437 H   0  0  0  0  0  0  0  0  0  0  0  0
    2.1453   -1.9511    3.0339 H   0  0  0  0  0  0  0  0  0  0  0  0
    3.0712   -0.4498    3.4078 H   0  0  0  0  0  0  0  0  0  0  0  0
    1.9564    0.7286    1.7127 H   0  0  0  0  0  0  0  0  0  0  0  0
    0.6151    1.7042    0.6994 H   0  0  0  0  0  0  0  0  0  0  0  0
   -0.9440    1.8634   -0.2303 H   0  0  0  0  0  0  0  0  0  0  0  0
   -1.6581   -1.8252    0.3022 H   0  0  0  0  0  0  0  0  0  0  0  0
   -4.0767   -0.8994   -2.1159 H   0  0  0  0  0  0  0  0  0  0  0  0
   -4.6605   -0.9639   -0.4400 H   0  0  0  0  0  0  0  0  0  0  0  0
   -3.4379   -2.2012   -0.9958 H   0  0  0  0  0  0  0  0  0  0  0  0
  1  2  1  0
  1 11  1  0
  1 12  1  0
  1 13  1  0
  2  3  1  0
  2 14  1  0
  3  4  2  0
  3  5  1  0
  5  6  2  3
  5  7  1  0
  6 15  1  0
  6 16  1  0
  7  8  1  0
  7 17  1  0
  8  9  1  0
  8 10  2  0
  9 18  1  0
  9 19  1  0
  9 20  1  0
M  END

> <RosettaParamsInstructions>
M  ROOT 7
M  POLY_N_BB 7
M  POLY_CA_BB 5
M  POLY_C_BB 3
M  POLY_O_BB 4
M  POLY_IGNORE 1 10 9 14 11 12 13 18 19 20
M  POLY_UPPER 2
M  POLY_LOWER 8
M  POLY_CHG 0
M  POLY_PROPERTIES PROTEIN POLYMER ALPHA_AA ALIPHATIC
M  END

$$$$
DHA_new
     RDKit          3D

 20 19  0  0  0  0  0  0  0  0999 V2000
    2.6616   -1.0622    2.5574 C   0  0  0  0  0  0  0  0  0  0  0  0
    1.6623   -0.2518    1.8553 N   0  0  0  0  0  0  0  0  0  0  0  0
    0.5373   -0.8508    1.2912 C   0  0  0  0  0  0  0  0  0  0  0  0
    0.4076   -2.1141    1.4049 O   0  0  0  0  0  0  0  0  0  0  0  0
   -0.4736   -0.0660    0.5861 C   0  0  0  0  0  0  0  0  0  0  0  0
   -0.3272    1.2273    0.4776 C   0  0  0  0  0  0  0  0  0  0  0  0
   -1.5763   -0.7814    0.0523 N   0  0  0  0  0  0  0  0  0  0  0  0
   -2.6497   -0.2403   -0.6526 C   0  0  0  0  0  0  0  0  0  0  0  0
   -3.7385   -1.1583   -1.1483 C   0  0  0  0  0  0  0  0  0  0  0  0
   -2.8153    0.9676   -0.9297 O   0  0  0  0  0  0  0  0  0  0  0  0
    2.5865   -2.1214    2.2439 H   0  0  0  0  0  0  0  0  0  0  0  0
    3.6676   -0.7179    2.2680 H   0  0  0  0  0  0  0  0  0  0  0  0
    2.5740   -0.9481    3.6541 H   0  0  0  0  0  0  0  0  0  0  0  0
    1.8643    0.7514    1.8225 H   0  0  0  0  0  0  0  0  0  0  0  0
    0.5336    1.7727    0.8963 H   0  0  0  0  0  0  0  0  0  0  0  0
   -1.0242    1.8877   -0.0263 H   0  0  0  0  0  0  0  0  0  0  0  0
   -1.5996   -1.8335    0.1962 H   0  0  0  0  0  0  0  0  0  0  0  0
   -4.6955   -0.6270   -1.0483 H   0  0  0  0  0  0  0  0  0  0  0  0
   -3.5145   -1.4086   -2.2213 H   0  0  0  0  0  0  0  0  0  0  0  0
   -3.6869   -2.0773   -0.5383 H   0  0  0  0  0  0  0  0  0  0  0  0
  1  2  1  0
  1 11  1  0
  1 12  1  0
  1 13  1  0
  2  3  1  0
  2 14  1  0
  3  4  2  0
  3  5  1  0
  5  6  2  3
  5  7  1  0
  6 15  1  0
  6 16  1  0
  7  8  1  0
  7 17  1  0
  8  9  1  0
  8 10  2  0
  9 18  1  0
  9 19  1  0
  9 20  1  0
M  END

> <RosettaParamsInstructions>
M  ROOT 7
M  POLY_N_BB 7
M  POLY_CA_BB 5
M  POLY_C_BB 3
M  POLY_O_BB 4
M  POLY_IGNORE 1 10 9 14 11 12 13 18 19 20
M  POLY_UPPER 2
M  POLY_LOWER 8
M  POLY_CHG 0
M  POLY_PROPERTIES PROTEIN POLYMER ALPHA_AA ALIPHATIC
M  END

$$$$
DHA_new
     RDKit          3D

 20 19  0  0  0  0  0  0  0  0999 V2000
    2.6494   -1.1011    2.5662 C   0  0  0  0  0  0  0  0  0  0  0  0
    1.6999   -0.2392    1.8639 N   0  0  0  0  0  0  0  0  0  0  0  0
    0.5605   -0.8161    1.2958 C   0  0  0  0  0  0  0  0  0  0  0  0
    0.4063   -2.0716    1.4196 O   0  0  0  0  0  0  0  0  0  0  0  0
   -0.4499   -0.0306    0.5709 C   0  0  0  0  0  0  0  0  0  0  0  0
   -0.3239    1.2594    0.4248 C   0  0  0  0  0  0  0  0  0  0  0  0
   -1.5573   -0.7576    0.0471 N   0  0  0  0  0  0  0  0  0  0  0  0
   -2.6364   -0.2437   -0.6716 C   0  0  0  0  0  0  0  0  0  0  0  0
   -3.7325   -1.1569   -1.1571 C   0  0  0  0  0  0  0  0  0  0  0  0
   -2.7787    0.9470   -0.9578 O   0  0  0  0  0  0  0  0  0  0  0  0
    2.6110   -0.8254    3.6453 H   0  0  0  0  0  0  0  0  0  0  0  0
    2.3863   -2.1543    2.4431 H   0  0  0  0  0  0  0  0  0  0  0  0
    3.6923   -0.8588    2.2315 H   0  0  0  0  0  0  0  0  0  0  0  0
    1.8733    0.7790    1.7918 H   0  0  0  0  0  0  0  0  0  0  0  0
    0.5507    1.7517    0.8525 H   0  0  0  0  0  0  0  0  0  0  0  0
   -1.0295    1.8787   -0.0934 H   0  0  0  0  0  0  0  0  0  0  0  0
   -1.5710   -1.8182    0.2199 H   0  0  0  0  0  0  0  0  0  0  0  0
   -4.5605   -1.1924   -0.4273 H   0  0  0  0  0  0  0  0  0  0  0  0
   -3.3030   -2.1922   -1.1982 H   0  0  0  0  0  0  0  0  0  0  0  0
   -4.0936   -0.8098   -2.1263 H   0  0  0  0  0  0  0  0  0  0  0  0
  1  2  1  0
  1 11  1  0
  1 12  1  0
  1 13  1  0
  2  3  1  0
  2 14  1  0
  3  4  2  0
  3  5  1  0
  5  6  2  3
  5  7  1  0
  6 15  1  0
  6 16  1  0
  7  8  1  0
  7 17  1  0
  8  9  1  0
  8 10  2  0
  9 18  1  0
  9 19  1  0
  9 20  1  0
M  END

> <RosettaParamsInstructions>
M  ROOT 7
M  POLY_N_BB 7
M  POLY_CA_BB 5
M  POLY_C_BB 3
M  POLY_O_BB 4
M  POLY_IGNORE 1 10 9 14 11 12 13 18 19 20
M  POLY_UPPER 2
M  POLY_LOWER 8
M  POLY_CHG 0
M  POLY_PROPERTIES PROTEIN POLYMER ALPHA_AA ALIPHATIC
M  END

$$$$
DHA_new
     RDKit          3D

 20 19  0  0  0  0  0  0  0  0999 V2000
    2.6863   -1.0497    2.5707 C   0  0  0  0  0  0  0  0  0  0  0  0
    1.6929   -0.2114    1.9029 N   0  0  0  0  0  0  0  0  0  0  0  0
    0.5945   -0.8232    1.3058 C   0  0  0  0  0  0  0  0  0  0  0  0
    0.4670   -2.1007    1.3472 O   0  0  0  0  0  0  0  0  0  0  0  0
   -0.4685   -0.0754    0.6050 C   0  0  0  0  0  0  0  0  0  0  0  0
   -0.3699    1.2215    0.5446 C   0  0  0  0  0  0  0  0  0  0  0  0
   -1.5513   -0.7593    0.0238 N   0  0  0  0  0  0  0  0  0  0  0  0
   -2.6411   -0.2408   -0.6719 C   0  0  0  0  0  0  0  0  0  0  0  0
   -3.7005   -1.1603   -1.2175 C   0  0  0  0  0  0  0  0  0  0  0  0
   -2.8385    0.9657   -0.9001 O   0  0  0  0  0  0  0  0  0  0  0  0
    2.2473   -1.3891    3.5488 H   0  0  0  0  0  0  0  0  0  0  0  0
    3.6037   -0.5040    2.7909 H   0  0  0  0  0  0  0  0  0  0  0  0
    2.8800   -1.8999    1.8988 H   0  0  0  0  0  0  0  0  0  0  0  0
    1.8551    0.7936    1.9072 H   0  0  0  0  0  0  0  0  0  0  0  0
    0.4655    1.7276    0.9949 H   0  0  0  0  0  0  0  0  0  0  0  0
   -1.0908    1.8481    0.0583 H   0  0  0  0  0  0  0  0  0  0  0  0
   -1.5317   -1.8167    0.1325 H   0  0  0  0  0  0  0  0  0  0  0  0
   -3.2747   -2.1824   -1.3957 H   0  0  0  0  0  0  0  0  0  0  0  0
   -4.0821   -0.7639   -2.1807 H   0  0  0  0  0  0  0  0  0  0  0  0
   -4.5494   -1.2320   -0.5246 H   0  0  0  0  0  0  0  0  0  0  0  0
  1  2  1  0
  1 11  1  0
  1 12  1  0
  1 13  1  0
  2  3  1  0
  2 14  1  0
  3  4  2  0
  3  5  1  0
  5  6  2  3
  5  7  1  0
  6 15  1  0
  6 16  1  0
  7  8  1  0
  7 17  1  0
  8  9  1  0
  8 10  2  0
  9 18  1  0
  9 19  1  0
  9 20  1  0
M  END

> <RosettaParamsInstructions>
M  ROOT 7
M  POLY_N_BB 7
M  POLY_CA_BB 5
M  POLY_C_BB 3
M  POLY_O_BB 4
M  POLY_IGNORE 1 10 9 14 11 12 13 18 19 20
M  POLY_UPPER 2
M  POLY_LOWER 8
M  POLY_CHG 0
M  POLY_PROPERTIES PROTEIN POLYMER ALPHA_AA ALIPHATIC
M  END

$$$$
DHA_new
     RDKit          3D

 20 19  0  0  0  0  0  0  0  0999 V2000
    2.6581   -1.0641    2.5988 C   0  0  0  0  0  0  0  0  0  0  0  0
    1.6547   -0.2330    1.8941 N   0  0  0  0  0  0  0  0  0  0  0  0
    0.5415   -0.8199    1.2897 C   0  0  0  0  0  0  0  0  0  0  0  0
    0.4154   -2.0803    1.3616 O   0  0  0  0  0  0  0  0  0  0  0  0
   -0.4750   -0.0491    0.5842 C   0  0  0  0  0  0  0  0  0  0  0  0
   -0.3475    1.2454    0.5091 C   0  0  0  0  0  0  0  0  0  0  0  0
   -1.5625   -0.7677    0.0108 N   0  0  0  0  0  0  0  0  0  0  0  0
   -2.6229   -0.2271   -0.6943 C   0  0  0  0  0  0  0  0  0  0  0  0
   -3.6748   -1.1730   -1.2195 C   0  0  0  0  0  0  0  0  0  0  0  0
   -2.7749    0.9868   -0.9289 O   0  0  0  0  0  0  0  0  0  0  0  0
    2.2823   -1.2095    3.6312 H   0  0  0  0  0  0  0  0  0  0  0  0
    3.6263   -0.5659    2.5756 H   0  0  0  0  0  0  0  0  0  0  0  0
    2.6451   -2.0422    2.0882 H   0  0  0  0  0  0  0  0  0  0  0  0
    1.8403    0.7907    1.8860 H   0  0  0  0  0  0  0  0  0  0  0  0
   -1.0550    1.8715    0.0076 H   0  0  0  0  0  0  0  0  0  0  0  0
    0.5080    1.7740    0.9645 H   0  0  0  0  0  0  0  0  0  0  0  0
   -1.5572   -1.8339    0.1393 H   0  0  0  0  0  0  0  0  0  0  0  0
   -3.1358   -2.0276   -1.6535 H   0  0  0  0  0  0  0  0  0  0  0  0
   -4.2555   -1.5492   -0.3544 H   0  0  0  0  0  0  0  0  0  0  0  0
   -4.3171   -0.6781   -1.9491 H   0  0  0  0  0  0  0  0  0  0  0  0
  1  2  1  0
  1 11  1  0
  1 12  1  0
  1 13  1  0
  2  3  1  0
  2 14  1  0
  3  4  2  0
  3  5  1  0
  5  6  2  3
  5  7  1  0
  6 15  1  0
  6 16  1  0
  7  8  1  0
  7 17  1  0
  8  9  1  0
  8 10  2  0
  9 18  1  0
  9 19  1  0
  9 20  1  0
M  END

> <RosettaParamsInstructions>
M  ROOT 7
M  POLY_N_BB 7
M  POLY_CA_BB 5
M  POLY_C_BB 3
M  POLY_O_BB 4
M  POLY_IGNORE 1 10 9 14 11 12 13 18 19 20
M  POLY_UPPER 2
M  POLY_LOWER 8
M  POLY_CHG 0
M  POLY_PROPERTIES PROTEIN POLYMER ALPHA_AA ALIPHATIC
M  END

$$$$
DHA_new
     RDKit          3D

 20 19  0  0  0  0  0  0  0  0999 V2000
    2.6840   -1.0738    2.5703 C   0  0  0  0  0  0  0  0  0  0  0  0
    1.6984   -0.2381    1.8440 N   0  0  0  0  0  0  0  0  0  0  0  0
    0.5577   -0.8272    1.2964 C   0  0  0  0  0  0  0  0  0  0  0  0
    0.3936   -2.0770    1.4368 O   0  0  0  0  0  0  0  0  0  0  0  0
   -0.4514   -0.0734    0.5720 C   0  0  0  0  0  0  0  0  0  0  0  0
   -0.2878    1.2263    0.4218 C   0  0  0  0  0  0  0  0  0  0  0  0
   -1.6002   -0.7662    0.0392 N   0  0  0  0  0  0  0  0  0  0  0  0
   -2.6594   -0.2291   -0.6734 C   0  0  0  0  0  0  0  0  0  0  0  0
   -3.7642   -1.1633   -1.1353 C   0  0  0  0  0  0  0  0  0  0  0  0
   -2.8011    0.9708   -0.9810 O   0  0  0  0  0  0  0  0  0  0  0  0
    2.1820   -2.0151    2.8426 H   0  0  0  0  0  0  0  0  0  0  0  0
    2.9232   -0.5143    3.5089 H   0  0  0  0  0  0  0  0  0  0  0  0
    3.5477   -1.2327    1.9232 H   0  0  0  0  0  0  0  0  0  0  0  0
    1.9461    0.7607    1.7990 H   0  0  0  0  0  0  0  0  0  0  0  0
   -1.0035    1.8765   -0.1137 H   0  0  0  0  0  0  0  0  0  0  0  0
    0.5946    1.6864    0.8446 H   0  0  0  0  0  0  0  0  0  0  0  0
   -1.5929   -1.8196    0.2416 H   0  0  0  0  0  0  0  0  0  0  0  0
   -3.4042   -1.6327   -2.0538 H   0  0  0  0  0  0  0  0  0  0  0  0
   -4.6989   -0.5946   -1.3110 H   0  0  0  0  0  0  0  0  0  0  0  0
   -3.8701   -1.9158   -0.3313 H   0  0  0  0  0  0  0  0  0  0  0  0
  1  2  1  0
  1 11  1  0
  1 12  1  0
  1 13  1  0
  2  3  1  0
  2 14  1  0
  3  4  2  0
  3  5  1  0
  5  6  2  3
  5  7  1  0
  6 15  1  0
  6 16  1  0
  7  8  1  0
  7 17  1  0
  8  9  1  0
  8 10  2  0
  9 18  1  0
  9 19  1  0
  9 20  1  0
M  END

> <RosettaParamsInstructions>
M  ROOT 7
M  POLY_N_BB 7
M  POLY_CA_BB 5
M  POLY_C_BB 3
M  POLY_O_BB 4
M  POLY_IGNORE 1 10 9 14 11 12 13 18 19 20
M  POLY_UPPER 2
M  POLY_LOWER 8
M  POLY_CHG 0
M  POLY_PROPERTIES PROTEIN POLYMER ALPHA_AA ALIPHATIC
M  END

$$$$
DHA_new
     RDKit          3D

 20 19  0  0  0  0  0  0  0  0999 V2000
    2.6553   -1.0549    2.5722 C   0  0  0  0  0  0  0  0  0  0  0  0
    1.6845   -0.2343    1.8674 N   0  0  0  0  0  0  0  0  0  0  0  0
    0.5573   -0.8165    1.2976 C   0  0  0  0  0  0  0  0  0  0  0  0
    0.3836   -2.0813    1.4001 O   0  0  0  0  0  0  0  0  0  0  0  0
   -0.4701   -0.0374    0.5662 C   0  0  0  0  0  0  0  0  0  0  0  0
   -0.3202    1.2614    0.4442 C   0  0  0  0  0  0  0  0  0  0  0  0
   -1.5787   -0.7588    0.0300 N   0  0  0  0  0  0  0  0  0  0  0  0
   -2.6434   -0.2319   -0.6825 C   0  0  0  0  0  0  0  0  0  0  0  0
   -3.7208   -1.1820   -1.1634 C   0  0  0  0  0  0  0  0  0  0  0  0
   -2.7853    0.9693   -0.9605 O   0  0  0  0  0  0  0  0  0  0  0  0
    3.1370   -0.4587    3.3958 H   0  0  0  0  0  0  0  0  0  0  0  0
    2.1518   -1.9551    2.9887 H   0  0  0  0  0  0  0  0  0  0  0  0
    3.4538   -1.4232    1.8968 H   0  0  0  0  0  0  0  0  0  0  0  0
    1.8812    0.7669    1.8212 H   0  0  0  0  0  0  0  0  0  0  0  0
   -1.0377    1.8580   -0.0751 H   0  0  0  0  0  0  0  0  0  0  0  0
    0.5588    1.7557    0.8820 H   0  0  0  0  0  0  0  0  0  0  0  0
   -1.6060   -1.8253    0.1866 H   0  0  0  0  0  0  0  0  0  0  0  0
   -3.4576   -1.6026   -2.1509 H   0  0  0  0  0  0  0  0  0  0  0  0
   -4.6579   -0.6263   -1.1830 H   0  0  0  0  0  0  0  0  0  0  0  0
   -3.7922   -1.9751   -0.3927 H   0  0  0  0  0  0  0  0  0  0  0  0
  1  2  1  0
  1 11  1  0
  1 12  1  0
  1 13  1  0
  2  3  1  0
  2 14  1  0
  3  4  2  0
  3  5  1  0
  5  6  2  3
  5  7  1  0
  6 15  1  0
  6 16  1  0
  7  8  1  0
  7 17  1  0
  8  9  1  0
  8 10  2  0
  9 18  1  0
  9 19  1  0
  9 20  1  0
M  END

> <RosettaParamsInstructions>
M  ROOT 7
M  POLY_N_BB 7
M  POLY_CA_BB 5
M  POLY_C_BB 3
M  POLY_O_BB 4
M  POLY_IGNORE 1 10 9 14 11 12 13 18 19 20
M  POLY_UPPER 2
M  POLY_LOWER 8
M  POLY_CHG 0
M  POLY_PROPERTIES PROTEIN POLYMER ALPHA_AA ALIPHATIC
M  END

$$$$
DHA_new
     RDKit          3D

 20 19  0  0  0  0  0  0  0  0999 V2000
    2.6448   -1.0777    2.6833 C   0  0  0  0  0  0  0  0  0  0  0  0
    1.6992   -0.3128    1.8980 N   0  0  0  0  0  0  0  0  0  0  0  0
    0.5256   -0.8252    1.3388 C   0  0  0  0  0  0  0  0  0  0  0  0
    0.2748   -2.0422    1.5341 O   0  0  0  0  0  0  0  0  0  0  0  0
   -0.4393   -0.0562    0.5407 C   0  0  0  0  0  0  0  0  0  0  0  0
   -0.2577    1.2179    0.2876 C   0  0  0  0  0  0  0  0  0  0  0  0
   -1.5821   -0.7024    0.0380 N   0  0  0  0  0  0  0  0  0  0  0  0
   -2.6291   -0.2156   -0.7292 C   0  0  0  0  0  0  0  0  0  0  0  0
   -3.7452   -1.1555   -1.1322 C   0  0  0  0  0  0  0  0  0  0  0  0
   -2.7927    0.9533   -1.1598 O   0  0  0  0  0  0  0  0  0  0  0  0
    2.2556   -2.0514    3.0113 H   0  0  0  0  0  0  0  0  0  0  0  0
    3.5795   -1.1396    2.0982 H   0  0  0  0  0  0  0  0  0  0  0  0
    2.8645   -0.4921    3.6006 H   0  0  0  0  0  0  0  0  0  0  0  0
    1.9758    0.6904    1.7790 H   0  0  0  0  0  0  0  0  0  0  0  0
    0.6394    1.7145    0.6851 H   0  0  0  0  0  0  0  0  0  0  0  0
   -0.9736    1.7590   -0.2962 H   0  0  0  0  0  0  0  0  0  0  0  0
   -1.6655   -1.7570    0.2877 H   0  0  0  0  0  0  0  0  0  0  0  0
   -3.9611   -0.9789   -2.2061 H   0  0  0  0  0  0  0  0  0  0  0  0
   -3.3992   -2.2125   -1.0356 H   0  0  0  0  0  0  0  0  0  0  0  0
   -4.6203   -0.9682   -0.4825 H   0  0  0  0  0  0  0  0  0  0  0  0
  1  2  1  0
  1 11  1  0
  1 12  1  0
  1 13  1  0
  2  3  1  0
  2 14  1  0
  3  4  2  0
  3  5  1  0
  5  6  2  3
  5  7  1  0
  6 15  1  0
  6 16  1  0
  7  8  1  0
  7 17  1  0
  8  9  1  0
  8 10  2  0
  9 18  1  0
  9 19  1  0
  9 20  1  0
M  END

> <RosettaParamsInstructions>
M  ROOT 7
M  POLY_N_BB 7
M  POLY_CA_BB 5
M  POLY_C_BB 3
M  POLY_O_BB 4
M  POLY_IGNORE 1 10 9 14 11 12 13 18 19 20
M  POLY_UPPER 2
M  POLY_LOWER 8
M  POLY_CHG 0
M  POLY_PROPERTIES PROTEIN POLYMER ALPHA_AA ALIPHATIC
M  END

$$$$
DHA_new
     RDKit          3D

 20 19  0  0  0  0  0  0  0  0999 V2000
    2.6617   -1.0897    2.5746 C   0  0  0  0  0  0  0  0  0  0  0  0
    1.7312   -0.2298    1.8348 N   0  0  0  0  0  0  0  0  0  0  0  0
    0.5606   -0.8180    1.3138 C   0  0  0  0  0  0  0  0  0  0  0  0
    0.3426   -2.0599    1.4947 O   0  0  0  0  0  0  0  0  0  0  0  0
   -0.4454   -0.0501    0.5536 C   0  0  0  0  0  0  0  0  0  0  0  0
   -0.2659    1.2309    0.3412 C   0  0  0  0  0  0  0  0  0  0  0  0
   -1.5893   -0.7372    0.0721 N   0  0  0  0  0  0  0  0  0  0  0  0
   -2.6584   -0.2453   -0.6562 C   0  0  0  0  0  0  0  0  0  0  0  0
   -3.7732   -1.1586   -1.0655 C   0  0  0  0  0  0  0  0  0  0  0  0
   -2.7608    0.9391   -1.0051 O   0  0  0  0  0  0  0  0  0  0  0  0
    2.6276   -2.0902    2.1244 H   0  0  0  0  0  0  0  0  0  0  0  0
    2.3854   -1.0669    3.6442 H   0  0  0  0  0  0  0  0  0  0  0  0
    3.6798   -0.7021    2.4555 H   0  0  0  0  0  0  0  0  0  0  0  0
    1.9830    0.7654    1.7336 H   0  0  0  0  0  0  0  0  0  0  0  0
    0.6360    1.7250    0.7325 H   0  0  0  0  0  0  0  0  0  0  0  0
   -0.9476    1.8587   -0.2004 H   0  0  0  0  0  0  0  0  0  0  0  0
   -1.6308   -1.7854    0.3058 H   0  0  0  0  0  0  0  0  0  0  0  0
   -4.7114   -0.6014   -0.9818 H   0  0  0  0  0  0  0  0  0  0  0  0
   -3.6631   -1.4826   -2.1210 H   0  0  0  0  0  0  0  0  0  0  0  0
   -3.7687   -2.0542   -0.4100 H   0  0  0  0  0  0  0  0  0  0  0  0
  1  2  1  0
  1 11  1  0
  1 12  1  0
  1 13  1  0
  2  3  1  0
  2 14  1  0
  3  4  2  0
  3  5  1  0
  5  6  2  3
  5  7  1  0
  6 15  1  0
  6 16  1  0
  7  8  1  0
  7 17  1  0
  8  9  1  0
  8 10  2  0
  9 18  1  0
  9 19  1  0
  9 20  1  0
M  END

> <RosettaParamsInstructions>
M  ROOT 7
M  POLY_N_BB 7
M  POLY_CA_BB 5
M  POLY_C_BB 3
M  POLY_O_BB 4
M  POLY_IGNORE 1 10 9 14 11 12 13 18 19 20
M  POLY_UPPER 2
M  POLY_LOWER 8
M  POLY_CHG 0
M  POLY_PROPERTIES PROTEIN POLYMER ALPHA_AA ALIPHATIC
M  END

$$$$
DHA_new
     RDKit          3D

 20 19  0  0  0  0  0  0  0  0999 V2000
    2.6956   -1.0806    2.5733 C   0  0  0  0  0  0  0  0  0  0  0  0
    1.7034   -0.2208    1.9042 N   0  0  0  0  0  0  0  0  0  0  0  0
    0.5895   -0.8170    1.3001 C   0  0  0  0  0  0  0  0  0  0  0  0
    0.4552   -2.0627    1.3378 O   0  0  0  0  0  0  0  0  0  0  0  0
   -0.4729   -0.0468    0.5979 C   0  0  0  0  0  0  0  0  0  0  0  0
   -0.4030    1.2524    0.5170 C   0  0  0  0  0  0  0  0  0  0  0  0
   -1.5402   -0.7671    0.0331 N   0  0  0  0  0  0  0  0  0  0  0  0
   -2.6168   -0.2153   -0.6570 C   0  0  0  0  0  0  0  0  0  0  0  0
   -3.6721   -1.1729   -1.1923 C   0  0  0  0  0  0  0  0  0  0  0  0
   -2.8492    0.9729   -0.9066 O   0  0  0  0  0  0  0  0  0  0  0  0
    2.1984   -1.3965    3.5260 H   0  0  0  0  0  0  0  0  0  0  0  0
    3.6133   -0.5159    2.7447 H   0  0  0  0  0  0  0  0  0  0  0  0
    2.8163   -1.9634    1.9320 H   0  0  0  0  0  0  0  0  0  0  0  0
    1.8658    0.8046    1.9040 H   0  0  0  0  0  0  0  0  0  0  0  0
    0.4418    1.7888    0.9672 H   0  0  0  0  0  0  0  0  0  0  0  0
   -1.1211    1.8602    0.0341 H   0  0  0  0  0  0  0  0  0  0  0  0
   -1.5591   -1.8418    0.1231 H   0  0  0  0  0  0  0  0  0  0  0  0
   -4.0906   -0.7887   -2.1445 H   0  0  0  0  0  0  0  0  0  0  0  0
   -4.4894   -1.2933   -0.4526 H   0  0  0  0  0  0  0  0  0  0  0  0
   -3.1715   -2.1483   -1.4006 H   0  0  0  0  0  0  0  0  0  0  0  0
  1  2  1  0
  1 11  1  0
  1 12  1  0
  1 13  1  0
  2  3  1  0
  2 14  1  0
  3  4  2  0
  3  5  1  0
  5  6  2  3
  5  7  1  0
  6 15  1  0
  6 16  1  0
  7  8  1  0
  7 17  1  0
  8  9  1  0
  8 10  2  0
  9 18  1  0
  9 19  1  0
  9 20  1  0
M  END

> <RosettaParamsInstructions>
M  ROOT 7
M  POLY_N_BB 7
M  POLY_CA_BB 5
M  POLY_C_BB 3
M  POLY_O_BB 4
M  POLY_IGNORE 1 10 9 14 11 12 13 18 19 20
M  POLY_UPPER 2
M  POLY_LOWER 8
M  POLY_CHG 0
M  POLY_PROPERTIES PROTEIN POLYMER ALPHA_AA ALIPHATIC
M  END

$$$$
DHA_new
     RDKit          3D

 20 19  0  0  0  0  0  0  0  0999 V2000
    2.6391   -1.0105    2.6649 C   0  0  0  0  0  0  0  0  0  0  0  0
    1.6973   -0.2598    1.8290 N   0  0  0  0  0  0  0  0  0  0  0  0
    0.5181   -0.8146    1.3457 C   0  0  0  0  0  0  0  0  0  0  0  0
    0.2609   -2.0052    1.6433 O   0  0  0  0  0  0  0  0  0  0  0  0
   -0.4197   -0.0846    0.5199 C   0  0  0  0  0  0  0  0  0  0  0  0
   -0.1361    1.1624    0.2165 C   0  0  0  0  0  0  0  0  0  0  0  0
   -1.5838   -0.7781    0.0977 N   0  0  0  0  0  0  0  0  0  0  0  0
   -2.6065   -0.2653   -0.6961 C   0  0  0  0  0  0  0  0  0  0  0  0
   -3.7923   -1.1343   -1.0648 C   0  0  0  0  0  0  0  0  0  0  0  0
   -2.6476    0.8830   -1.1529 O   0  0  0  0  0  0  0  0  0  0  0  0
    2.6927   -2.0331    2.2077 H   0  0  0  0  0  0  0  0  0  0  0  0
    2.1864   -1.1139    3.6715 H   0  0  0  0  0  0  0  0  0  0  0  0
    3.6121   -0.5150    2.7364 H   0  0  0  0  0  0  0  0  0  0  0  0
    1.9600    0.7170    1.6152 H   0  0  0  0  0  0  0  0  0  0  0  0
    0.7660    1.6841    0.5496 H   0  0  0  0  0  0  0  0  0  0  0  0
   -0.8282    1.7164   -0.3986 H   0  0  0  0  0  0  0  0  0  0  0  0
   -1.7275   -1.8010    0.3988 H   0  0  0  0  0  0  0  0  0  0  0  0
   -3.6320   -1.5221   -2.0747 H   0  0  0  0  0  0  0  0  0  0  0  0
   -3.8511   -1.9336   -0.2991 H   0  0  0  0  0  0  0  0  0  0  0  0
   -4.7140   -0.5438   -1.0691 H   0  0  0  0  0  0  0  0  0  0  0  0
  1  2  1  0
  1 11  1  0
  1 12  1  0
  1 13  1  0
  2  3  1  0
  2 14  1  0
  3  4  2  0
  3  5  1  0
  5  6  2  3
  5  7  1  0
  6 15  1  0
  6 16  1  0
  7  8  1  0
  7 17  1  0
  8  9  1  0
  8 10  2  0
  9 18  1  0
  9 19  1  0
  9 20  1  0
M  END

> <RosettaParamsInstructions>
M  ROOT 7
M  POLY_N_BB 7
M  POLY_CA_BB 5
M  POLY_C_BB 3
M  POLY_O_BB 4
M  POLY_IGNORE 1 10 9 14 11 12 13 18 19 20
M  POLY_UPPER 2
M  POLY_LOWER 8
M  POLY_CHG 0
M  POLY_PROPERTIES PROTEIN POLYMER ALPHA_AA ALIPHATIC
M  END

$$$$
DHA_new
     RDKit          3D

 20 19  0  0  0  0  0  0  0  0999 V2000
    2.6659   -1.0535    2.6028 C   0  0  0  0  0  0  0  0  0  0  0  0
    1.7163   -0.2420    1.8692 N   0  0  0  0  0  0  0  0  0  0  0  0
    0.5655   -0.8010    1.3222 C   0  0  0  0  0  0  0  0  0  0  0  0
    0.3632   -2.0355    1.4780 O   0  0  0  0  0  0  0  0  0  0  0  0
   -0.4603   -0.0650    0.5609 C   0  0  0  0  0  0  0  0  0  0  0  0
   -0.2784    1.2161    0.3829 C   0  0  0  0  0  0  0  0  0  0  0  0
   -1.5839   -0.7550    0.0588 N   0  0  0  0  0  0  0  0  0  0  0  0
   -2.6423   -0.2312   -0.6744 C   0  0  0  0  0  0  0  0  0  0  0  0
   -3.7572   -1.1553   -1.1196 C   0  0  0  0  0  0  0  0  0  0  0  0
   -2.8025    0.9479   -1.0292 O   0  0  0  0  0  0  0  0  0  0  0  0
    2.3807   -2.1363    2.5716 H   0  0  0  0  0  0  0  0  0  0  0  0
    2.8019   -0.7479    3.6415 H   0  0  0  0  0  0  0  0  0  0  0  0
    3.6682   -0.9655    2.1078 H   0  0  0  0  0  0  0  0  0  0  0  0
    1.9430    0.7573    1.7798 H   0  0  0  0  0  0  0  0  0  0  0  0
   -1.0088    1.7847   -0.1690 H   0  0  0  0  0  0  0  0  0  0  0  0
    0.5969    1.7335    0.7786 H   0  0  0  0  0  0  0  0  0  0  0  0
   -1.6399   -1.8197    0.2622 H   0  0  0  0  0  0  0  0  0  0  0  0
   -3.3699   -2.1749   -1.1877 H   0  0  0  0  0  0  0  0  0  0  0  0
   -4.6062   -1.0629   -0.3947 H   0  0  0  0  0  0  0  0  0  0  0  0
   -4.1587   -0.8461   -2.1010 H   0  0  0  0  0  0  0  0  0  0  0  0
  1  2  1  0
  1 11  1  0
  1 12  1  0
  1 13  1  0
  2  3  1  0
  2 14  1  0
  3  4  2  0
  3  5  1  0
  5  6  2  3
  5  7  1  0
  6 15  1  0
  6 16  1  0
  7  8  1  0
  7 17  1  0
  8  9  1  0
  8 10  2  0
  9 18  1  0
  9 19  1  0
  9 20  1  0
M  END

> <RosettaParamsInstructions>
M  ROOT 7
M  POLY_N_BB 7
M  POLY_CA_BB 5
M  POLY_C_BB 3
M  POLY_O_BB 4
M  POLY_IGNORE 1 10 9 14 11 12 13 18 19 20
M  POLY_UPPER 2
M  POLY_LOWER 8
M  POLY_CHG 0
M  POLY_PROPERTIES PROTEIN POLYMER ALPHA_AA ALIPHATIC
M  END

$$$$
DHA_new
     RDKit          3D

 20 19  0  0  0  0  0  0  0  0999 V2000
    2.6227   -1.0625    2.6741 C   0  0  0  0  0  0  0  0  0  0  0  0
    1.6863   -0.2075    1.9195 N   0  0  0  0  0  0  0  0  0  0  0  0
    0.5619   -0.8036    1.3478 C   0  0  0  0  0  0  0  0  0  0  0  0
    0.3737   -2.0626    1.4908 O   0  0  0  0  0  0  0  0  0  0  0  0
   -0.4434   -0.0562    0.5728 C   0  0  0  0  0  0  0  0  0  0  0  0
   -0.2991    1.2223    0.3986 C   0  0  0  0  0  0  0  0  0  0  0  0
   -1.5614   -0.7636    0.0280 N   0  0  0  0  0  0  0  0  0  0  0  0
   -2.6043   -0.2440   -0.7232 C   0  0  0  0  0  0  0  0  0  0  0  0
   -3.6893   -1.1651   -1.2037 C   0  0  0  0  0  0  0  0  0  0  0  0
   -2.7283    0.9423   -1.0442 O   0  0  0  0  0  0  0  0  0  0  0  0
    3.3993   -0.4385    3.1385 H   0  0  0  0  0  0  0  0  0  0  0  0
    3.0774   -1.7300    1.9264 H   0  0  0  0  0  0  0  0  0  0  0  0
    2.1053   -1.6653    3.4254 H   0  0  0  0  0  0  0  0  0  0  0  0
    1.8709    0.8071    1.8245 H   0  0  0  0  0  0  0  0  0  0  0  0
   -0.9870    1.8270   -0.1509 H   0  0  0  0  0  0  0  0  0  0  0  0
    0.5558    1.7831    0.8112 H   0  0  0  0  0  0  0  0  0  0  0  0
   -1.6062   -1.8277    0.2195 H   0  0  0  0  0  0  0  0  0  0  0  0
   -3.5267   -1.5098   -2.2264 H   0  0  0  0  0  0  0  0  0  0  0  0
   -3.7582   -2.0662   -0.5593 H   0  0  0  0  0  0  0  0  0  0  0  0
   -4.6557   -0.6313   -1.1286 H   0  0  0  0  0  0  0  0  0  0  0  0
  1  2  1  0
  1 11  1  0
  1 12  1  0
  1 13  1  0
  2  3  1  0
  2 14  1  0
  3  4  2  0
  3  5  1  0
  5  6  2  3
  5  7  1  0
  6 15  1  0
  6 16  1  0
  7  8  1  0
  7 17  1  0
  8  9  1  0
  8 10  2  0
  9 18  1  0
  9 19  1  0
  9 20  1  0
M  END

> <RosettaParamsInstructions>
M  ROOT 7
M  POLY_N_BB 7
M  POLY_CA_BB 5
M  POLY_C_BB 3
M  POLY_O_BB 4
M  POLY_IGNORE 1 10 9 14 11 12 13 18 19 20
M  POLY_UPPER 2
M  POLY_LOWER 8
M  POLY_CHG 0
M  POLY_PROPERTIES PROTEIN POLYMER ALPHA_AA ALIPHATIC
M  END

$$$$
DHA_new
     RDKit          3D

 20 19  0  0  0  0  0  0  0  0999 V2000
    2.6907   -1.0424    2.5779 C   0  0  0  0  0  0  0  0  0  0  0  0
    1.6846   -0.2436    1.8731 N   0  0  0  0  0  0  0  0  0  0  0  0
    0.5482   -0.8128    1.2942 C   0  0  0  0  0  0  0  0  0  0  0  0
    0.4372   -2.0846    1.4172 O   0  0  0  0  0  0  0  0  0  0  0  0
   -0.4730   -0.0528    0.5864 C   0  0  0  0  0  0  0  0  0  0  0  0
   -0.3497    1.2375    0.4678 C   0  0  0  0  0  0  0  0  0  0  0  0
   -1.5636   -0.7510    0.0532 N   0  0  0  0  0  0  0  0  0  0  0  0
   -2.6552   -0.2540   -0.6569 C   0  0  0  0  0  0  0  0  0  0  0  0
   -3.7536   -1.1520   -1.1650 C   0  0  0  0  0  0  0  0  0  0  0  0
   -2.8043    0.9607   -0.9232 O   0  0  0  0  0  0  0  0  0  0  0  0
    2.4029   -1.2333    3.6286 H   0  0  0  0  0  0  0  0  0  0  0  0
    2.7366   -2.0564    2.0912 H   0  0  0  0  0  0  0  0  0  0  0  0
    3.6893   -0.5837    2.4707 H   0  0  0  0  0  0  0  0  0  0  0  0
    1.8773    0.7653    1.8365 H   0  0  0  0  0  0  0  0  0  0  0  0
   -1.0568    1.8850   -0.0403 H   0  0  0  0  0  0  0  0  0  0  0  0
    0.5223    1.7418    0.9020 H   0  0  0  0  0  0  0  0  0  0  0  0
   -1.5778   -1.8187    0.2026 H   0  0  0  0  0  0  0  0  0  0  0  0
   -4.7439   -0.6871   -1.0453 H   0  0  0  0  0  0  0  0  0  0  0  0
   -3.5048   -1.3614   -2.2181 H   0  0  0  0  0  0  0  0  0  0  0  0
   -3.7129   -2.1087   -0.6117 H   0  0  0  0  0  0  0  0  0  0  0  0
  1  2  1  0
  1 11  1  0
  1 12  1  0
  1 13  1  0
  2  3  1  0
  2 14  1  0
  3  4  2  0
  3  5  1  0
  5  6  2  3
  5  7  1  0
  6 15  1  0
  6 16  1  0
  7  8  1  0
  7 17  1  0
  8  9  1  0
  8 10  2  0
  9 18  1  0
  9 19  1  0
  9 20  1  0
M  END

> <RosettaParamsInstructions>
M  ROOT 7
M  POLY_N_BB 7
M  POLY_CA_BB 5
M  POLY_C_BB 3
M  POLY_O_BB 4
M  POLY_IGNORE 1 10 9 14 11 12 13 18 19 20
M  POLY_UPPER 2
M  POLY_LOWER 8
M  POLY_CHG 0
M  POLY_PROPERTIES PROTEIN POLYMER ALPHA_AA ALIPHATIC
M  END

$$$$
DHA_new
     RDKit          3D

 20 19  0  0  0  0  0  0  0  0999 V2000
    2.6671   -1.0603    2.5477 C   0  0  0  0  0  0  0  0  0  0  0  0
    1.6763   -0.2242    1.8567 N   0  0  0  0  0  0  0  0  0  0  0  0
    0.5643   -0.8484    1.2973 C   0  0  0  0  0  0  0  0  0  0  0  0
    0.4470   -2.1031    1.4030 O   0  0  0  0  0  0  0  0  0  0  0  0
   -0.4620   -0.0572    0.5917 C   0  0  0  0  0  0  0  0  0  0  0  0
   -0.3415    1.2337    0.4828 C   0  0  0  0  0  0  0  0  0  0  0  0
   -1.5417   -0.7784    0.0642 N   0  0  0  0  0  0  0  0  0  0  0  0
   -2.6306   -0.2486   -0.6421 C   0  0  0  0  0  0  0  0  0  0  0  0
   -3.7260   -1.1546   -1.1536 C   0  0  0  0  0  0  0  0  0  0  0  0
   -2.8088    0.9542   -0.9120 O   0  0  0  0  0  0  0  0  0  0  0  0
    3.6656   -0.6568    2.2935 H   0  0  0  0  0  0  0  0  0  0  0  0
    2.4248   -1.0433    3.6154 H   0  0  0  0  0  0  0  0  0  0  0  0
    2.6207   -2.1091    2.1959 H   0  0  0  0  0  0  0  0  0  0  0  0
    1.8805    0.7966    1.8339 H   0  0  0  0  0  0  0  0  0  0  0  0
   -1.0797    1.8354   -0.0292 H   0  0  0  0  0  0  0  0  0  0  0  0
    0.5218    1.7598    0.9118 H   0  0  0  0  0  0  0  0  0  0  0  0
   -1.5457   -1.8405    0.2091 H   0  0  0  0  0  0  0  0  0  0  0  0
   -3.3711   -2.1948   -1.0160 H   0  0  0  0  0  0  0  0  0  0  0  0
   -4.6418   -0.9621   -0.5665 H   0  0  0  0  0  0  0  0  0  0  0  0
   -3.9256   -0.9503   -2.2428 H   0  0  0  0  0  0  0  0  0  0  0  0
  1  2  1  0
  1 11  1  0
  1 12  1  0
  1 13  1  0
  2  3  1  0
  2 14  1  0
  3  4  2  0
  3  5  1  0
  5  6  2  3
  5  7  1  0
  6 15  1  0
  6 16  1  0
  7  8  1  0
  7 17  1  0
  8  9  1  0
  8 10  2  0
  9 18  1  0
  9 19  1  0
  9 20  1  0
M  END

> <RosettaParamsInstructions>
M  ROOT 7
M  POLY_N_BB 7
M  POLY_CA_BB 5
M  POLY_C_BB 3
M  POLY_O_BB 4
M  POLY_IGNORE 1 10 9 14 11 12 13 18 19 20
M  POLY_UPPER 2
M  POLY_LOWER 8
M  POLY_CHG 0
M  POLY_PROPERTIES PROTEIN POLYMER ALPHA_AA ALIPHATIC
M  END

$$$$
DHA_new
     RDKit          3D

 20 19  0  0  0  0  0  0  0  0999 V2000
    2.7185   -1.0577    2.5724 C   0  0  0  0  0  0  0  0  0  0  0  0
    1.7117   -0.2190    1.9184 N   0  0  0  0  0  0  0  0  0  0  0  0
    0.5993   -0.7992    1.2924 C   0  0  0  0  0  0  0  0  0  0  0  0
    0.4909   -2.0780    1.3097 O   0  0  0  0  0  0  0  0  0  0  0  0
   -0.4750   -0.0612    0.6046 C   0  0  0  0  0  0  0  0  0  0  0  0
   -0.4316    1.2416    0.5470 C   0  0  0  0  0  0  0  0  0  0  0  0
   -1.5426   -0.7788    0.0141 N   0  0  0  0  0  0  0  0  0  0  0  0
   -2.6401   -0.2437   -0.6745 C   0  0  0  0  0  0  0  0  0  0  0  0
   -3.7093   -1.1624   -1.2531 C   0  0  0  0  0  0  0  0  0  0  0  0
   -2.8722    0.9655   -0.8904 O   0  0  0  0  0  0  0  0  0  0  0  0
    3.2385   -0.4730    3.3741 H   0  0  0  0  0  0  0  0  0  0  0  0
    3.4327   -1.4862    1.8531 H   0  0  0  0  0  0  0  0  0  0  0  0
    2.1963   -1.8828    3.0960 H   0  0  0  0  0  0  0  0  0  0  0  0
    1.8688    0.7979    1.9469 H   0  0  0  0  0  0  0  0  0  0  0  0
   -1.1616    1.8646    0.0719 H   0  0  0  0  0  0  0  0  0  0  0  0
    0.4321    1.7392    1.0301 H   0  0  0  0  0  0  0  0  0  0  0  0
   -1.5354   -1.8499    0.0871 H   0  0  0  0  0  0  0  0  0  0  0  0
   -3.7700   -2.0966   -0.6562 H   0  0  0  0  0  0  0  0  0  0  0  0
   -3.4567   -1.3850   -2.3028 H   0  0  0  0  0  0  0  0  0  0  0  0
   -4.7008   -0.6876   -1.2001 H   0  0  0  0  0  0  0  0  0  0  0  0
  1  2  1  0
  1 11  1  0
  1 12  1  0
  1 13  1  0
  2  3  1  0
  2 14  1  0
  3  4  2  0
  3  5  1  0
  5  6  2  3
  5  7  1  0
  6 15  1  0
  6 16  1  0
  7  8  1  0
  7 17  1  0
  8  9  1  0
  8 10  2  0
  9 18  1  0
  9 19  1  0
  9 20  1  0
M  END

> <RosettaParamsInstructions>
M  ROOT 7
M  POLY_N_BB 7
M  POLY_CA_BB 5
M  POLY_C_BB 3
M  POLY_O_BB 4
M  POLY_IGNORE 1 10 9 14 11 12 13 18 19 20
M  POLY_UPPER 2
M  POLY_LOWER 8
M  POLY_CHG 0
M  POLY_PROPERTIES PROTEIN POLYMER ALPHA_AA ALIPHATIC
M  END

$$$$
DHA_new
     RDKit          3D

 20 19  0  0  0  0  0  0  0  0999 V2000
    2.6837   -1.0602    2.5723 C   0  0  0  0  0  0  0  0  0  0  0  0
    1.6730   -0.2229    1.9154 N   0  0  0  0  0  0  0  0  0  0  0  0
    0.5831   -0.8295    1.3005 C   0  0  0  0  0  0  0  0  0  0  0  0
    0.4630   -2.1166    1.3083 O   0  0  0  0  0  0  0  0  0  0  0  0
   -0.4705   -0.0423    0.6211 C   0  0  0  0  0  0  0  0  0  0  0  0
   -0.3864    1.2561    0.5910 C   0  0  0  0  0  0  0  0  0  0  0  0
   -1.5616   -0.7478    0.0115 N   0  0  0  0  0  0  0  0  0  0  0  0
   -2.6477   -0.2273   -0.6709 C   0  0  0  0  0  0  0  0  0  0  0  0
   -3.6925   -1.1802   -1.2373 C   0  0  0  0  0  0  0  0  0  0  0  0
   -2.8950    0.9798   -0.8936 O   0  0  0  0  0  0  0  0  0  0  0  0
    2.5898   -0.8971    3.6689 H   0  0  0  0  0  0  0  0  0  0  0  0
    3.6780   -0.7640    2.1968 H   0  0  0  0  0  0  0  0  0  0  0  0
    2.5302   -2.1253    2.3343 H   0  0  0  0  0  0  0  0  0  0  0  0
    1.8220    0.7833    1.9423 H   0  0  0  0  0  0  0  0  0  0  0  0
    0.4561    1.7488    1.0649 H   0  0  0  0  0  0  0  0  0  0  0  0
   -1.1539    1.8391    0.0955 H   0  0  0  0  0  0  0  0  0  0  0  0
   -1.5280   -1.8192    0.0980 H   0  0  0  0  0  0  0  0  0  0  0  0
   -4.5481   -1.2691   -0.5629 H   0  0  0  0  0  0  0  0  0  0  0  0
   -3.2067   -2.1570   -1.3782 H   0  0  0  0  0  0  0  0  0  0  0  0
   -3.9951   -0.8010   -2.2372 H   0  0  0  0  0  0  0  0  0  0  0  0
  1  2  1  0
  1 11  1  0
  1 12  1  0
  1 13  1  0
  2  3  1  0
  2 14  1  0
  3  4  2  0
  3  5  1  0
  5  6  2  3
  5  7  1  0
  6 15  1  0
  6 16  1  0
  7  8  1  0
  7 17  1  0
  8  9  1  0
  8 10  2  0
  9 18  1  0
  9 19  1  0
  9 20  1  0
M  END

> <RosettaParamsInstructions>
M  ROOT 7
M  POLY_N_BB 7
M  POLY_CA_BB 5
M  POLY_C_BB 3
M  POLY_O_BB 4
M  POLY_IGNORE 1 10 9 14 11 12 13 18 19 20
M  POLY_UPPER 2
M  POLY_LOWER 8
M  POLY_CHG 0
M  POLY_PROPERTIES PROTEIN POLYMER ALPHA_AA ALIPHATIC
M  END

$$$$
DHA_new
     RDKit          3D

 20 19  0  0  0  0  0  0  0  0999 V2000
    2.6880   -1.0668    2.5891 C   0  0  0  0  0  0  0  0  0  0  0  0
    1.6926   -0.2417    1.8677 N   0  0  0  0  0  0  0  0  0  0  0  0
    0.5551   -0.8141    1.2983 C   0  0  0  0  0  0  0  0  0  0  0  0
    0.4007   -2.0697    1.4192 O   0  0  0  0  0  0  0  0  0  0  0  0
   -0.4625   -0.0788    0.5789 C   0  0  0  0  0  0  0  0  0  0  0  0
   -0.3117    1.2161    0.4493 C   0  0  0  0  0  0  0  0  0  0  0  0
   -1.5785   -0.7452    0.0380 N   0  0  0  0  0  0  0  0  0  0  0  0
   -2.6538   -0.2419   -0.6760 C   0  0  0  0  0  0  0  0  0  0  0  0
   -3.7440   -1.1946   -1.1536 C   0  0  0  0  0  0  0  0  0  0  0  0
   -2.7899    0.9682   -0.9593 O   0  0  0  0  0  0  0  0  0  0  0  0
    2.1551   -1.9967    2.8731 H   0  0  0  0  0  0  0  0  0  0  0  0
    3.5290   -1.2899    1.9042 H   0  0  0  0  0  0  0  0  0  0  0  0
    3.0253   -0.5015    3.4781 H   0  0  0  0  0  0  0  0  0  0  0  0
    1.8915    0.7659    1.8147 H   0  0  0  0  0  0  0  0  0  0  0  0
   -1.0294    1.8132   -0.0713 H   0  0  0  0  0  0  0  0  0  0  0  0
    0.5567    1.7564    0.8666 H   0  0  0  0  0  0  0  0  0  0  0  0
   -1.5893   -1.8120    0.2113 H   0  0  0  0  0  0  0  0  0  0  0  0
   -3.3451   -2.2150   -1.2177 H   0  0  0  0  0  0  0  0  0  0  0  0
   -4.0294   -0.8278   -2.1519 H   0  0  0  0  0  0  0  0  0  0  0  0
   -4.5669   -1.0762   -0.4178 H   0  0  0  0  0  0  0  0  0  0  0  0
  1  2  1  0
  1 11  1  0
  1 12  1  0
  1 13  1  0
  2  3  1  0
  2 14  1  0
  3  4  2  0
  3  5  1  0
  5  6  2  3
  5  7  1  0
  6 15  1  0
  6 16  1  0
  7  8  1  0
  7 17  1  0
  8  9  1  0
  8 10  2  0
  9 18  1  0
  9 19  1  0
  9 20  1  0
M  END

> <RosettaParamsInstructions>
M  ROOT 7
M  POLY_N_BB 7
M  POLY_CA_BB 5
M  POLY_C_BB 3
M  POLY_O_BB 4
M  POLY_IGNORE 1 10 9 14 11 12 13 18 19 20
M  POLY_UPPER 2
M  POLY_LOWER 8
M  POLY_CHG 0
M  POLY_PROPERTIES PROTEIN POLYMER ALPHA_AA ALIPHATIC
M  END

$$$$
DHA_new
     RDKit          3D

 20 19  0  0  0  0  0  0  0  0999 V2000
    2.6500   -1.0588    2.5978 C   0  0  0  0  0  0  0  0  0  0  0  0
    1.6815   -0.2253    1.8682 N   0  0  0  0  0  0  0  0  0  0  0  0
    0.5547   -0.8359    1.3171 C   0  0  0  0  0  0  0  0  0  0  0  0
    0.3905   -2.0757    1.4537 O   0  0  0  0  0  0  0  0  0  0  0  0
   -0.4618   -0.0873    0.5752 C   0  0  0  0  0  0  0  0  0  0  0  0
   -0.2846    1.2122    0.4351 C   0  0  0  0  0  0  0  0  0  0  0  0
   -1.5787   -0.7844    0.0462 N   0  0  0  0  0  0  0  0  0  0  0  0
   -2.6419   -0.2260   -0.6876 C   0  0  0  0  0  0  0  0  0  0  0  0
   -3.7428   -1.1632   -1.1617 C   0  0  0  0  0  0  0  0  0  0  0  0
   -2.7932    0.9701   -1.0024 O   0  0  0  0  0  0  0  0  0  0  0  0
    3.6748   -0.6107    2.5204 H   0  0  0  0  0  0  0  0  0  0  0  0
    2.3446   -1.1091    3.6620 H   0  0  0  0  0  0  0  0  0  0  0  0
    2.6442   -2.0494    2.1008 H   0  0  0  0  0  0  0  0  0  0  0  0
    1.9077    0.7674    1.8149 H   0  0  0  0  0  0  0  0  0  0  0  0
   -0.9865    1.8419   -0.0985 H   0  0  0  0  0  0  0  0  0  0  0  0
    0.5784    1.7558    0.8428 H   0  0  0  0  0  0  0  0  0  0  0  0
   -1.5824   -1.8380    0.2425 H   0  0  0  0  0  0  0  0  0  0  0  0
   -3.2145   -2.1027   -1.4324 H   0  0  0  0  0  0  0  0  0  0  0  0
   -4.4627   -1.3091   -0.3297 H   0  0  0  0  0  0  0  0  0  0  0  0
   -4.2840   -0.7241   -2.0236 H   0  0  0  0  0  0  0  0  0  0  0  0
  1  2  1  0
  1 11  1  0
  1 12  1  0
  1 13  1  0
  2  3  1  0
  2 14  1  0
  3  4  2  0
  3  5  1  0
  5  6  2  3
  5  7  1  0
  6 15  1  0
  6 16  1  0
  7  8  1  0
  7 17  1  0
  8  9  1  0
  8 10  2  0
  9 18  1  0
  9 19  1  0
  9 20  1  0
M  END

> <RosettaParamsInstructions>
M  ROOT 7
M  POLY_N_BB 7
M  POLY_CA_BB 5
M  POLY_C_BB 3
M  POLY_O_BB 4
M  POLY_IGNORE 1 10 9 14 11 12 13 18 19 20
M  POLY_UPPER 2
M  POLY_LOWER 8
M  POLY_CHG 0
M  POLY_PROPERTIES PROTEIN POLYMER ALPHA_AA ALIPHATIC
M  END

$$$$
DHA_new
     RDKit          3D

 20 19  0  0  0  0  0  0  0  0999 V2000
    2.6284   -1.0579    2.6773 C   0  0  0  0  0  0  0  0  0  0  0  0
    1.7190   -0.2257    1.8880 N   0  0  0  0  0  0  0  0  0  0  0  0
    0.5590   -0.7924    1.3567 C   0  0  0  0  0  0  0  0  0  0  0  0
    0.3307   -2.0138    1.5761 O   0  0  0  0  0  0  0  0  0  0  0  0
   -0.4469   -0.0612    0.5390 C   0  0  0  0  0  0  0  0  0  0  0  0
   -0.2460    1.2032    0.2905 C   0  0  0  0  0  0  0  0  0  0  0  0
   -1.5762   -0.7821    0.0711 N   0  0  0  0  0  0  0  0  0  0  0  0
   -2.6173   -0.2799   -0.7009 C   0  0  0  0  0  0  0  0  0  0  0  0
   -3.7729   -1.1534   -1.1399 C   0  0  0  0  0  0  0  0  0  0  0  0
   -2.6808    0.8996   -1.0834 O   0  0  0  0  0  0  0  0  0  0  0  0
    2.2777   -2.0927    2.7087 H   0  0  0  0  0  0  0  0  0  0  0  0
    3.6357   -0.9770    2.2067 H   0  0  0  0  0  0  0  0  0  0  0  0
    2.6720   -0.6710    3.7103 H   0  0  0  0  0  0  0  0  0  0  0  0
    1.9696    0.7681    1.7484 H   0  0  0  0  0  0  0  0  0  0  0  0
   -0.9303    1.7880   -0.2913 H   0  0  0  0  0  0  0  0  0  0  0  0
    0.6564    1.6796    0.6935 H   0  0  0  0  0  0  0  0  0  0  0  0
   -1.6589   -1.8245    0.3258 H   0  0  0  0  0  0  0  0  0  0  0  0
   -3.7427   -1.1931   -2.2443 H   0  0  0  0  0  0  0  0  0  0  0  0
   -3.6524   -2.1830   -0.7517 H   0  0  0  0  0  0  0  0  0  0  0  0
   -4.7303   -0.6831   -0.8398 H   0  0  0  0  0  0  0  0  0  0  0  0
  1  2  1  0
  1 11  1  0
  1 12  1  0
  1 13  1  0
  2  3  1  0
  2 14  1  0
  3  4  2  0
  3  5  1  0
  5  6  2  3
  5  7  1  0
  6 15  1  0
  6 16  1  0
  7  8  1  0
  7 17  1  0
  8  9  1  0
  8 10  2  0
  9 18  1  0
  9 19  1  0
  9 20  1  0
M  END

> <RosettaParamsInstructions>
M  ROOT 7
M  POLY_N_BB 7
M  POLY_CA_BB 5
M  POLY_C_BB 3
M  POLY_O_BB 4
M  POLY_IGNORE 1 10 9 14 11 12 13 18 19 20
M  POLY_UPPER 2
M  POLY_LOWER 8
M  POLY_CHG 0
M  POLY_PROPERTIES PROTEIN POLYMER ALPHA_AA ALIPHATIC
M  END

$$$$
DHA_new
     RDKit          3D

 20 19  0  0  0  0  0  0  0  0999 V2000
    2.6916   -1.0362    2.6207 C   0  0  0  0  0  0  0  0  0  0  0  0
    1.7063   -0.2357    1.8945 N   0  0  0  0  0  0  0  0  0  0  0  0
    0.5657   -0.8200    1.3231 C   0  0  0  0  0  0  0  0  0  0  0  0
    0.3970   -2.0642    1.4449 O   0  0  0  0  0  0  0  0  0  0  0  0
   -0.4622   -0.0861    0.5834 C   0  0  0  0  0  0  0  0  0  0  0  0
   -0.3081    1.2005    0.4453 C   0  0  0  0  0  0  0  0  0  0  0  0
   -1.5848   -0.7811    0.0424 N   0  0  0  0  0  0  0  0  0  0  0  0
   -2.6461   -0.2575   -0.6795 C   0  0  0  0  0  0  0  0  0  0  0  0
   -3.7693   -1.1421   -1.1871 C   0  0  0  0  0  0  0  0  0  0  0  0
   -2.7859    0.9475   -0.9772 O   0  0  0  0  0  0  0  0  0  0  0  0
    2.3988   -2.1119    2.5527 H   0  0  0  0  0  0  0  0  0  0  0  0
    3.6429   -0.9291    2.0530 H   0  0  0  0  0  0  0  0  0  0  0  0
    2.8225   -0.7177    3.6550 H   0  0  0  0  0  0  0  0  0  0  0  0
    1.9354    0.7731    1.8504 H   0  0  0  0  0  0  0  0  0  0  0  0
   -1.0016    1.8201   -0.0759 H   0  0  0  0  0  0  0  0  0  0  0  0
    0.5449    1.6983    0.8618 H   0  0  0  0  0  0  0  0  0  0  0  0
   -1.5992   -1.8462    0.2238 H   0  0  0  0  0  0  0  0  0  0  0  0
   -4.7259   -0.8730   -0.7189 H   0  0  0  0  0  0  0  0  0  0  0  0
   -3.5381   -2.1783   -0.8906 H   0  0  0  0  0  0  0  0  0  0  0  0
   -3.8903   -1.0124   -2.2810 H   0  0  0  0  0  0  0  0  0  0  0  0
  1  2  1  0
  1 11  1  0
  1 12  1  0
  1 13  1  0
  2  3  1  0
  2 14  1  0
  3  4  2  0
  3  5  1  0
  5  6  2  3
  5  7  1  0
  6 15  1  0
  6 16  1  0
  7  8  1  0
  7 17  1  0
  8  9  1  0
  8 10  2  0
  9 18  1  0
  9 19  1  0
  9 20  1  0
M  END

> <RosettaParamsInstructions>
M  ROOT 7
M  POLY_N_BB 7
M  POLY_CA_BB 5
M  POLY_C_BB 3
M  POLY_O_BB 4
M  POLY_IGNORE 1 10 9 14 11 12 13 18 19 20
M  POLY_UPPER 2
M  POLY_LOWER 8
M  POLY_CHG 0
M  POLY_PROPERTIES PROTEIN POLYMER ALPHA_AA ALIPHATIC
M  END

$$$$
DHA_new
     RDKit          3D

 20 19  0  0  0  0  0  0  0  0999 V2000
    2.6119   -1.0641    2.6693 C   0  0  0  0  0  0  0  0  0  0  0  0
    1.7070   -0.2097    1.8782 N   0  0  0  0  0  0  0  0  0  0  0  0
    0.5516   -0.8077    1.3516 C   0  0  0  0  0  0  0  0  0  0  0  0
    0.3327   -2.0329    1.5703 O   0  0  0  0  0  0  0  0  0  0  0  0
   -0.4266   -0.0436    0.5420 C   0  0  0  0  0  0  0  0  0  0  0  0
   -0.2355    1.2257    0.2940 C   0  0  0  0  0  0  0  0  0  0  0  0
   -1.5521   -0.7364    0.0607 N   0  0  0  0  0  0  0  0  0  0  0  0
   -2.6126   -0.2678   -0.7141 C   0  0  0  0  0  0  0  0  0  0  0  0
   -3.7310   -1.1977   -1.1233 C   0  0  0  0  0  0  0  0  0  0  0  0
   -2.7542    0.9045   -1.1353 O   0  0  0  0  0  0  0  0  0  0  0  0
    2.0315   -1.8794    3.1712 H   0  0  0  0  0  0  0  0  0  0  0  0
    3.3554   -1.4982    1.9858 H   0  0  0  0  0  0  0  0  0  0  0  0
    3.0895   -0.4509    3.4481 H   0  0  0  0  0  0  0  0  0  0  0  0
    1.9541    0.7742    1.7457 H   0  0  0  0  0  0  0  0  0  0  0  0
    0.6279    1.7392    0.6684 H   0  0  0  0  0  0  0  0  0  0  0  0
   -0.9227    1.7928   -0.2834 H   0  0  0  0  0  0  0  0  0  0  0  0
   -1.5974   -1.7742    0.3305 H   0  0  0  0  0  0  0  0  0  0  0  0
   -3.9047   -1.0768   -2.2200 H   0  0  0  0  0  0  0  0  0  0  0  0
   -3.4936   -2.2399   -0.8832 H   0  0  0  0  0  0  0  0  0  0  0  0
   -4.6378   -0.8092   -0.6158 H   0  0  0  0  0  0  0  0  0  0  0  0
  1  2  1  0
  1 11  1  0
  1 12  1  0
  1 13  1  0
  2  3  1  0
  2 14  1  0
  3  4  2  0
  3  5  1  0
  5  6  2  3
  5  7  1  0
  6 15  1  0
  6 16  1  0
  7  8  1  0
  7 17  1  0
  8  9  1  0
  8 10  2  0
  9 18  1  0
  9 19  1  0
  9 20  1  0
M  END

> <RosettaParamsInstructions>
M  ROOT 7
M  POLY_N_BB 7
M  POLY_CA_BB 5
M  POLY_C_BB 3
M  POLY_O_BB 4
M  POLY_IGNORE 1 10 9 14 11 12 13 18 19 20
M  POLY_UPPER 2
M  POLY_LOWER 8
M  POLY_CHG 0
M  POLY_PROPERTIES PROTEIN POLYMER ALPHA_AA ALIPHATIC
M  END

$$$$
DHA_new
     RDKit          3D

 20 19  0  0  0  0  0  0  0  0999 V2000
    2.6695   -1.0672    2.5692 C   0  0  0  0  0  0  0  0  0  0  0  0
    1.6846   -0.2352    1.8549 N   0  0  0  0  0  0  0  0  0  0  0  0
    0.5621   -0.8297    1.2960 C   0  0  0  0  0  0  0  0  0  0  0  0
    0.3980   -2.0697    1.4051 O   0  0  0  0  0  0  0  0  0  0  0  0
   -0.4473   -0.0709    0.5794 C   0  0  0  0  0  0  0  0  0  0  0  0
   -0.2905    1.2281    0.4563 C   0  0  0  0  0  0  0  0  0  0  0  0
   -1.5636   -0.7735    0.0420 N   0  0  0  0  0  0  0  0  0  0  0  0
   -2.6433   -0.2634   -0.6746 C   0  0  0  0  0  0  0  0  0  0  0  0
   -3.7463   -1.1758   -1.1695 C   0  0  0  0  0  0  0  0  0  0  0  0
   -2.7810    0.9444   -0.9551 O   0  0  0  0  0  0  0  0  0  0  0  0
    2.6334   -0.7214    3.6198 H   0  0  0  0  0  0  0  0  0  0  0  0
    2.3868   -2.1393    2.5273 H   0  0  0  0  0  0  0  0  0  0  0  0
    3.6871   -0.8985    2.1538 H   0  0  0  0  0  0  0  0  0  0  0  0
    1.8743    0.7733    1.7991 H   0  0  0  0  0  0  0  0  0  0  0  0
    0.5580    1.7948    0.8594 H   0  0  0  0  0  0  0  0  0  0  0  0
   -0.9972    1.8590   -0.0619 H   0  0  0  0  0  0  0  0  0  0  0  0
   -1.5909   -1.8381    0.2022 H   0  0  0  0  0  0  0  0  0  0  0  0
   -3.7440   -2.1020   -0.5577 H   0  0  0  0  0  0  0  0  0  0  0  0
   -3.5695   -1.4158   -2.2341 H   0  0  0  0  0  0  0  0  0  0  0  0
   -4.6868   -0.6511   -0.9710 H   0  0  0  0  0  0  0  0  0  0  0  0
  1  2  1  0
  1 11  1  0
  1 12  1  0
  1 13  1  0
  2  3  1  0
  2 14  1  0
  3  4  2  0
  3  5  1  0
  5  6  2  3
  5  7  1  0
  6 15  1  0
  6 16  1  0
  7  8  1  0
  7 17  1  0
  8  9  1  0
  8 10  2  0
  9 18  1  0
  9 19  1  0
  9 20  1  0
M  END

> <RosettaParamsInstructions>
M  ROOT 7
M  POLY_N_BB 7
M  POLY_CA_BB 5
M  POLY_C_BB 3
M  POLY_O_BB 4
M  POLY_IGNORE 1 10 9 14 11 12 13 18 19 20
M  POLY_UPPER 2
M  POLY_LOWER 8
M  POLY_CHG 0
M  POLY_PROPERTIES PROTEIN POLYMER ALPHA_AA ALIPHATIC
M  END

$$$$
DHA_new
     RDKit          3D

 20 19  0  0  0  0  0  0  0  0999 V2000
    2.7394   -1.0675    2.5003 C   0  0  0  0  0  0  0  0  0  0  0  0
    1.6911   -0.2470    1.8477 N   0  0  0  0  0  0  0  0  0  0  0  0
    0.5810   -0.8482    1.2627 C   0  0  0  0  0  0  0  0  0  0  0  0
    0.4649   -2.1180    1.2885 O   0  0  0  0  0  0  0  0  0  0  0  0
   -0.4792   -0.0835    0.6075 C   0  0  0  0  0  0  0  0  0  0  0  0
   -0.3909    1.2280    0.5628 C   0  0  0  0  0  0  0  0  0  0  0  0
   -1.5652   -0.7978    0.0442 N   0  0  0  0  0  0  0  0  0  0  0  0
   -2.6641   -0.2560   -0.6169 C   0  0  0  0  0  0  0  0  0  0  0  0
   -3.7597   -1.1551   -1.1721 C   0  0  0  0  0  0  0  0  0  0  0  0
   -2.8472    0.9654   -0.8085 O   0  0  0  0  0  0  0  0  0  0  0  0
    3.1775   -0.4542    3.3100 H   0  0  0  0  0  0  0  0  0  0  0  0
    2.2591   -1.9583    2.9771 H   0  0  0  0  0  0  0  0  0  0  0  0
    3.5218   -1.3505    1.7876 H   0  0  0  0  0  0  0  0  0  0  0  0
    1.8204    0.7799    1.8468 H   0  0  0  0  0  0  0  0  0  0  0  0
   -1.1259    1.8932    0.0988 H   0  0  0  0  0  0  0  0  0  0  0  0
    0.4622    1.7711    1.0066 H   0  0  0  0  0  0  0  0  0  0  0  0
   -1.5426   -1.8597    0.1336 H   0  0  0  0  0  0  0  0  0  0  0  0
   -4.6044   -1.1786   -0.4701 H   0  0  0  0  0  0  0  0  0  0  0  0
   -4.0158   -0.7632   -2.1670 H   0  0  0  0  0  0  0  0  0  0  0  0
   -3.3288   -2.1523   -1.2987 H   0  0  0  0  0  0  0  0  0  0  0  0
  1  2  1  0
  1 11  1  0
  1 12  1  0
  1 13  1  0
  2  3  1  0
  2 14  1  0
  3  4  2  0
  3  5  1  0
  5  6  2  3
  5  7  1  0
  6 15  1  0
  6 16  1  0
  7  8  1  0
  7 17  1  0
  8  9  1  0
  8 10  2  0
  9 18  1  0
  9 19  1  0
  9 20  1  0
M  END

> <RosettaParamsInstructions>
M  ROOT 7
M  POLY_N_BB 7
M  POLY_CA_BB 5
M  POLY_C_BB 3
M  POLY_O_BB 4
M  POLY_IGNORE 1 10 9 14 11 12 13 18 19 20
M  POLY_UPPER 2
M  POLY_LOWER 8
M  POLY_CHG 0
M  POLY_PROPERTIES PROTEIN POLYMER ALPHA_AA ALIPHATIC
M  END

$$$$
DHA_new
     RDKit          3D

 20 19  0  0  0  0  0  0  0  0999 V2000
    2.6659   -1.0356    2.5622 C   0  0  0  0  0  0  0  0  0  0  0  0
    1.7033   -0.2205    1.8116 N   0  0  0  0  0  0  0  0  0  0  0  0
    0.5518   -0.8461    1.3198 C   0  0  0  0  0  0  0  0  0  0  0  0
    0.3657   -2.0858    1.5292 O   0  0  0  0  0  0  0  0  0  0  0  0
   -0.4677   -0.0913    0.5523 C   0  0  0  0  0  0  0  0  0  0  0  0
   -0.2583    1.1799    0.3481 C   0  0  0  0  0  0  0  0  0  0  0  0
   -1.6142   -0.8011    0.0846 N   0  0  0  0  0  0  0  0  0  0  0  0
   -2.6470   -0.2351   -0.6424 C   0  0  0  0  0  0  0  0  0  0  0  0
   -3.7950   -1.1288   -1.0643 C   0  0  0  0  0  0  0  0  0  0  0  0
   -2.7182    0.9533   -0.9842 O   0  0  0  0  0  0  0  0  0  0  0  0
    3.3710   -1.5484    1.8582 H   0  0  0  0  0  0  0  0  0  0  0  0
    2.0740   -1.8131    3.0841 H   0  0  0  0  0  0  0  0  0  0  0  0
    3.2319   -0.4076    3.2510 H   0  0  0  0  0  0  0  0  0  0  0  0
    1.9562    0.7647    1.7036 H   0  0  0  0  0  0  0  0  0  0  0  0
   -0.9211    1.8387   -0.1935 H   0  0  0  0  0  0  0  0  0  0  0  0
    0.6385    1.6794    0.7280 H   0  0  0  0  0  0  0  0  0  0  0  0
   -1.6720   -1.8474    0.3174 H   0  0  0  0  0  0  0  0  0  0  0  0
   -4.7063   -0.5380   -0.9390 H   0  0  0  0  0  0  0  0  0  0  0  0
   -3.5769   -1.4075   -2.1134 H   0  0  0  0  0  0  0  0  0  0  0  0
   -3.7880   -2.0621   -0.4722 H   0  0  0  0  0  0  0  0  0  0  0  0
  1  2  1  0
  1 11  1  0
  1 12  1  0
  1 13  1  0
  2  3  1  0
  2 14  1  0
  3  4  2  0
  3  5  1  0
  5  6  2  3
  5  7  1  0
  6 15  1  0
  6 16  1  0
  7  8  1  0
  7 17  1  0
  8  9  1  0
  8 10  2  0
  9 18  1  0
  9 19  1  0
  9 20  1  0
M  END

> <RosettaParamsInstructions>
M  ROOT 7
M  POLY_N_BB 7
M  POLY_CA_BB 5
M  POLY_C_BB 3
M  POLY_O_BB 4
M  POLY_IGNORE 1 10 9 14 11 12 13 18 19 20
M  POLY_UPPER 2
M  POLY_LOWER 8
M  POLY_CHG 0
M  POLY_PROPERTIES PROTEIN POLYMER ALPHA_AA ALIPHATIC
M  END

$$$$
DHA_new
     RDKit          3D

 20 19  0  0  0  0  0  0  0  0999 V2000
    2.6767   -1.0378    2.5705 C   0  0  0  0  0  0  0  0  0  0  0  0
    1.6787   -0.2244    1.8540 N   0  0  0  0  0  0  0  0  0  0  0  0
    0.5709   -0.8400    1.3073 C   0  0  0  0  0  0  0  0  0  0  0  0
    0.4168   -2.0859    1.4210 O   0  0  0  0  0  0  0  0  0  0  0  0
   -0.4727   -0.0794    0.5729 C   0  0  0  0  0  0  0  0  0  0  0  0
   -0.3468    1.2114    0.4353 C   0  0  0  0  0  0  0  0  0  0  0  0
   -1.5802   -0.7905    0.0419 N   0  0  0  0  0  0  0  0  0  0  0  0
   -2.6215   -0.2273   -0.6588 C   0  0  0  0  0  0  0  0  0  0  0  0
   -3.7276   -1.1395   -1.1560 C   0  0  0  0  0  0  0  0  0  0  0  0
   -2.7481    0.9680   -0.9283 O   0  0  0  0  0  0  0  0  0  0  0  0
    3.6480   -0.5146    2.6043 H   0  0  0  0  0  0  0  0  0  0  0  0
    2.3533   -1.2178    3.6156 H   0  0  0  0  0  0  0  0  0  0  0  0
    2.7542   -2.0420    2.0750 H   0  0  0  0  0  0  0  0  0  0  0  0
    1.8647    0.7814    1.7981 H   0  0  0  0  0  0  0  0  0  0  0  0
    0.5286    1.7411    0.8603 H   0  0  0  0  0  0  0  0  0  0  0  0
   -1.0369    1.8291   -0.0691 H   0  0  0  0  0  0  0  0  0  0  0  0
   -1.6102   -1.8659    0.2003 H   0  0  0  0  0  0  0  0  0  0  0  0
   -3.8061   -1.9897   -0.4415 H   0  0  0  0  0  0  0  0  0  0  0  0
   -3.4684   -1.5521   -2.1529 H   0  0  0  0  0  0  0  0  0  0  0  0
   -4.6798   -0.5762   -1.2090 H   0  0  0  0  0  0  0  0  0  0  0  0
  1  2  1  0
  1 11  1  0
  1 12  1  0
  1 13  1  0
  2  3  1  0
  2 14  1  0
  3  4  2  0
  3  5  1  0
  5  6  2  3
  5  7  1  0
  6 15  1  0
  6 16  1  0
  7  8  1  0
  7 17  1  0
  8  9  1  0
  8 10  2  0
  9 18  1  0
  9 19  1  0
  9 20  1  0
M  END

> <RosettaParamsInstructions>
M  ROOT 7
M  POLY_N_BB 7
M  POLY_CA_BB 5
M  POLY_C_BB 3
M  POLY_O_BB 4
M  POLY_IGNORE 1 10 9 14 11 12 13 18 19 20
M  POLY_UPPER 2
M  POLY_LOWER 8
M  POLY_CHG 0
M  POLY_PROPERTIES PROTEIN POLYMER ALPHA_AA ALIPHATIC
M  END

$$$$
DHA_new
     RDKit          3D

 20 19  0  0  0  0  0  0  0  0999 V2000
    2.6201   -1.0629    2.6462 C   0  0  0  0  0  0  0  0  0  0  0  0
    1.6587   -0.2334    1.8753 N   0  0  0  0  0  0  0  0  0  0  0  0
    0.5336   -0.8209    1.3311 C   0  0  0  0  0  0  0  0  0  0  0  0
    0.3352   -2.0601    1.4961 O   0  0  0  0  0  0  0  0  0  0  0  0
   -0.4558   -0.0522    0.5573 C   0  0  0  0  0  0  0  0  0  0  0  0
   -0.2706    1.2331    0.3737 C   0  0  0  0  0  0  0  0  0  0  0  0
   -1.5931   -0.7151    0.0231 N   0  0  0  0  0  0  0  0  0  0  0  0
   -2.6398   -0.2216   -0.7222 C   0  0  0  0  0  0  0  0  0  0  0  0
   -3.7237   -1.1832   -1.1555 C   0  0  0  0  0  0  0  0  0  0  0  0
   -2.7372    0.9749   -1.0560 O   0  0  0  0  0  0  0  0  0  0  0  0
    2.5461   -0.7865    3.7119 H   0  0  0  0  0  0  0  0  0  0  0  0
    2.4002   -2.1278    2.4490 H   0  0  0  0  0  0  0  0  0  0  0  0
    3.6066   -0.8463    2.1998 H   0  0  0  0  0  0  0  0  0  0  0  0
    1.9306    0.7499    1.8135 H   0  0  0  0  0  0  0  0  0  0  0  0
    0.6293    1.6891    0.8122 H   0  0  0  0  0  0  0  0  0  0  0  0
   -0.9683    1.8084   -0.1797 H   0  0  0  0  0  0  0  0  0  0  0  0
   -1.6094   -1.7656    0.2546 H   0  0  0  0  0  0  0  0  0  0  0  0
   -3.2387   -1.9746   -1.7502 H   0  0  0  0  0  0  0  0  0  0  0  0
   -4.1207   -1.6276   -0.2365 H   0  0  0  0  0  0  0  0  0  0  0  0
   -4.5096   -0.6297   -1.7029 H   0  0  0  0  0  0  0  0  0  0  0  0
  1  2  1  0
  1 11  1  0
  1 12  1  0
  1 13  1  0
  2  3  1  0
  2 14  1  0
  3  4  2  0
  3  5  1  0
  5  6  2  3
  5  7  1  0
  6 15  1  0
  6 16  1  0
  7  8  1  0
  7 17  1  0
  8  9  1  0
  8 10  2  0
  9 18  1  0
  9 19  1  0
  9 20  1  0
M  END

> <RosettaParamsInstructions>
M  ROOT 7
M  POLY_N_BB 7
M  POLY_CA_BB 5
M  POLY_C_BB 3
M  POLY_O_BB 4
M  POLY_IGNORE 1 10 9 14 11 12 13 18 19 20
M  POLY_UPPER 2
M  POLY_LOWER 8
M  POLY_CHG 0
M  POLY_PROPERTIES PROTEIN POLYMER ALPHA_AA ALIPHATIC
M  END

$$$$
DHA_new
     RDKit          3D

 20 19  0  0  0  0  0  0  0  0999 V2000
    2.7177   -1.1063    2.5232 C   0  0  0  0  0  0  0  0  0  0  0  0
    1.7107   -0.2549    1.8719 N   0  0  0  0  0  0  0  0  0  0  0  0
    0.5891   -0.8343    1.2776 C   0  0  0  0  0  0  0  0  0  0  0  0
    0.4485   -2.0777    1.3037 O   0  0  0  0  0  0  0  0  0  0  0  0
   -0.4686   -0.0547    0.6032 C   0  0  0  0  0  0  0  0  0  0  0  0
   -0.3879    1.2434    0.5381 C   0  0  0  0  0  0  0  0  0  0  0  0
   -1.5781   -0.7327    0.0244 N   0  0  0  0  0  0  0  0  0  0  0  0
   -2.6653   -0.2225   -0.6437 C   0  0  0  0  0  0  0  0  0  0  0  0
   -3.7262   -1.1643   -1.1721 C   0  0  0  0  0  0  0  0  0  0  0  0
   -2.8853    0.9722   -0.8727 O   0  0  0  0  0  0  0  0  0  0  0  0
    2.7889   -0.7816    3.5961 H   0  0  0  0  0  0  0  0  0  0  0  0
    2.4391   -2.1580    2.4162 H   0  0  0  0  0  0  0  0  0  0  0  0
    3.6886   -0.8522    2.0482 H   0  0  0  0  0  0  0  0  0  0  0  0
    1.8762    0.7626    1.8794 H   0  0  0  0  0  0  0  0  0  0  0  0
   -1.1474    1.8207    0.0524 H   0  0  0  0  0  0  0  0  0  0  0  0
    0.4773    1.7312    0.9930 H   0  0  0  0  0  0  0  0  0  0  0  0
   -1.5357   -1.7999    0.1404 H   0  0  0  0  0  0  0  0  0  0  0  0
   -3.7617   -2.0385   -0.4894 H   0  0  0  0  0  0  0  0  0  0  0  0
   -4.7127   -0.6914   -1.1401 H   0  0  0  0  0  0  0  0  0  0  0  0
   -3.4738   -1.4136   -2.2089 H   0  0  0  0  0  0  0  0  0  0  0  0
  1  2  1  0
  1 11  1  0
  1 12  1  0
  1 13  1  0
  2  3  1  0
  2 14  1  0
  3  4  2  0
  3  5  1  0
  5  6  2  3
  5  7  1  0
  6 15  1  0
  6 16  1  0
  7  8  1  0
  7 17  1  0
  8  9  1  0
  8 10  2  0
  9 18  1  0
  9 19  1  0
  9 20  1  0
M  END

> <RosettaParamsInstructions>
M  ROOT 7
M  POLY_N_BB 7
M  POLY_CA_BB 5
M  POLY_C_BB 3
M  POLY_O_BB 4
M  POLY_IGNORE 1 10 9 14 11 12 13 18 19 20
M  POLY_UPPER 2
M  POLY_LOWER 8
M  POLY_CHG 0
M  POLY_PROPERTIES PROTEIN POLYMER ALPHA_AA ALIPHATIC
M  END

$$$$
DHA_new
     RDKit          3D

 20 19  0  0  0  0  0  0  0  0999 V2000
    2.6624   -1.0701    2.5633 C   0  0  0  0  0  0  0  0  0  0  0  0
    1.6927   -0.2617    1.8467 N   0  0  0  0  0  0  0  0  0  0  0  0
    0.5477   -0.8573    1.2963 C   0  0  0  0  0  0  0  0  0  0  0  0
    0.4010   -2.1034    1.4489 O   0  0  0  0  0  0  0  0  0  0  0  0
   -0.4658   -0.0616    0.5566 C   0  0  0  0  0  0  0  0  0  0  0  0
   -0.3228    1.2239    0.3942 C   0  0  0  0  0  0  0  0  0  0  0  0
   -1.5655   -0.7726    0.0545 N   0  0  0  0  0  0  0  0  0  0  0  0
   -2.6326   -0.2331   -0.6674 C   0  0  0  0  0  0  0  0  0  0  0  0
   -3.7267   -1.1720   -1.1227 C   0  0  0  0  0  0  0  0  0  0  0  0
   -2.7824    0.9777   -0.9854 O   0  0  0  0  0  0  0  0  0  0  0  0
    3.6636   -0.7526    2.2519 H   0  0  0  0  0  0  0  0  0  0  0  0
    2.4828   -2.1370    2.4041 H   0  0  0  0  0  0  0  0  0  0  0  0
    2.5861   -0.8776    3.6628 H   0  0  0  0  0  0  0  0  0  0  0  0
    1.8966    0.7493    1.7721 H   0  0  0  0  0  0  0  0  0  0  0  0
   -1.0108    1.8523   -0.1248 H   0  0  0  0  0  0  0  0  0  0  0  0
    0.5492    1.7709    0.7956 H   0  0  0  0  0  0  0  0  0  0  0  0
   -1.6134   -1.8252    0.2276 H   0  0  0  0  0  0  0  0  0  0  0  0
   -3.7934   -2.0249   -0.4190 H   0  0  0  0  0  0  0  0  0  0  0  0
   -3.4923   -1.4550   -2.1511 H   0  0  0  0  0  0  0  0  0  0  0  0
   -4.6829   -0.6225   -1.0634 H   0  0  0  0  0  0  0  0  0  0  0  0
  1  2  1  0
  1 11  1  0
  1 12  1  0
  1 13  1  0
  2  3  1  0
  2 14  1  0
  3  4  2  0
  3  5  1  0
  5  6  2  3
  5  7  1  0
  6 15  1  0
  6 16  1  0
  7  8  1  0
  7 17  1  0
  8  9  1  0
  8 10  2  0
  9 18  1  0
  9 19  1  0
  9 20  1  0
M  END

> <RosettaParamsInstructions>
M  ROOT 7
M  POLY_N_BB 7
M  POLY_CA_BB 5
M  POLY_C_BB 3
M  POLY_O_BB 4
M  POLY_IGNORE 1 10 9 14 11 12 13 18 19 20
M  POLY_UPPER 2
M  POLY_LOWER 8
M  POLY_CHG 0
M  POLY_PROPERTIES PROTEIN POLYMER ALPHA_AA ALIPHATIC
M  END

$$$$
DHA_new
     RDKit          3D

 20 19  0  0  0  0  0  0  0  0999 V2000
    2.6320   -1.0734    2.6292 C   0  0  0  0  0  0  0  0  0  0  0  0
    1.6974   -0.2189    1.8701 N   0  0  0  0  0  0  0  0  0  0  0  0
    0.5445   -0.8080    1.3242 C   0  0  0  0  0  0  0  0  0  0  0  0
    0.3407   -2.0373    1.4951 O   0  0  0  0  0  0  0  0  0  0  0  0
   -0.4790   -0.0595    0.5373 C   0  0  0  0  0  0  0  0  0  0  0  0
   -0.3023    1.2269    0.3367 C   0  0  0  0  0  0  0  0  0  0  0  0
   -1.5961   -0.7325    0.0327 N   0  0  0  0  0  0  0  0  0  0  0  0
   -2.6248   -0.1866   -0.7091 C   0  0  0  0  0  0  0  0  0  0  0  0
   -3.7236   -1.1767   -1.1276 C   0  0  0  0  0  0  0  0  0  0  0  0
   -2.7726    1.0026   -1.0797 O   0  0  0  0  0  0  0  0  0  0  0  0
    3.6462   -0.7571    2.3216 H   0  0  0  0  0  0  0  0  0  0  0  0
    2.4671   -2.1552    2.3565 H   0  0  0  0  0  0  0  0  0  0  0  0
    2.4488   -1.0057    3.7119 H   0  0  0  0  0  0  0  0  0  0  0  0
    1.9543    0.7777    1.7860 H   0  0  0  0  0  0  0  0  0  0  0  0
   -1.0111    1.7954   -0.2201 H   0  0  0  0  0  0  0  0  0  0  0  0
    0.5938    1.7393    0.7481 H   0  0  0  0  0  0  0  0  0  0  0  0
   -1.6324   -1.7787    0.2597 H   0  0  0  0  0  0  0  0  0  0  0  0
   -3.1787   -1.9950   -1.6187 H   0  0  0  0  0  0  0  0  0  0  0  0
   -4.1362   -1.5311   -0.1700 H   0  0  0  0  0  0  0  0  0  0  0  0
   -4.4745   -0.6783   -1.7432 H   0  0  0  0  0  0  0  0  0  0  0  0
  1  2  1  0
  1 11  1  0
  1 12  1  0
  1 13  1  0
  2  3  1  0
  2 14  1  0
  3  4  2  0
  3  5  1  0
  5  6  2  3
  5  7  1  0
  6 15  1  0
  6 16  1  0
  7  8  1  0
  7 17  1  0
  8  9  1  0
  8 10  2  0
  9 18  1  0
  9 19  1  0
  9 20  1  0
M  END

> <RosettaParamsInstructions>
M  ROOT 7
M  POLY_N_BB 7
M  POLY_CA_BB 5
M  POLY_C_BB 3
M  POLY_O_BB 4
M  POLY_IGNORE 1 10 9 14 11 12 13 18 19 20
M  POLY_UPPER 2
M  POLY_LOWER 8
M  POLY_CHG 0
M  POLY_PROPERTIES PROTEIN POLYMER ALPHA_AA ALIPHATIC
M  END

$$$$
DHA_new
     RDKit          3D

 20 19  0  0  0  0  0  0  0  0999 V2000
    2.6531   -1.0587    2.5720 C   0  0  0  0  0  0  0  0  0  0  0  0
    1.6773   -0.2172    1.8571 N   0  0  0  0  0  0  0  0  0  0  0  0
    0.5640   -0.8343    1.3122 C   0  0  0  0  0  0  0  0  0  0  0  0
    0.4056   -2.0702    1.4317 O   0  0  0  0  0  0  0  0  0  0  0  0
   -0.4714   -0.0905    0.5792 C   0  0  0  0  0  0  0  0  0  0  0  0
   -0.3263    1.1917    0.4439 C   0  0  0  0  0  0  0  0  0  0  0  0
   -1.5797   -0.7744    0.0486 N   0  0  0  0  0  0  0  0  0  0  0  0
   -2.6308   -0.2132   -0.6622 C   0  0  0  0  0  0  0  0  0  0  0  0
   -3.7253   -1.1807   -1.1360 C   0  0  0  0  0  0  0  0  0  0  0  0
   -2.7681    0.9949   -0.9499 O   0  0  0  0  0  0  0  0  0  0  0  0
    3.3930   -1.3759    1.8126 H   0  0  0  0  0  0  0  0  0  0  0  0
    3.1342   -0.4617    3.3709 H   0  0  0  0  0  0  0  0  0  0  0  0
    2.1291   -1.9260    3.0106 H   0  0  0  0  0  0  0  0  0  0  0  0
    1.8932    0.7795    1.8122 H   0  0  0  0  0  0  0  0  0  0  0  0
    0.5422    1.7169    0.8615 H   0  0  0  0  0  0  0  0  0  0  0  0
   -1.0197    1.8246   -0.0701 H   0  0  0  0  0  0  0  0  0  0  0  0
   -1.5882   -1.8261    0.2242 H   0  0  0  0  0  0  0  0  0  0  0  0
   -4.5184   -1.1959   -0.3873 H   0  0  0  0  0  0  0  0  0  0  0  0
   -3.2598   -2.1760   -1.3043 H   0  0  0  0  0  0  0  0  0  0  0  0
   -4.1104   -0.7590   -2.0862 H   0  0  0  0  0  0  0  0  0  0  0  0
  1  2  1  0
  1 11  1  0
  1 12  1  0
  1 13  1  0
  2  3  1  0
  2 14  1  0
  3  4  2  0
  3  5  1  0
  5  6  2  3
  5  7  1  0
  6 15  1  0
  6 16  1  0
  7  8  1  0
  7 17  1  0
  8  9  1  0
  8 10  2  0
  9 18  1  0
  9 19  1  0
  9 20  1  0
M  END

> <RosettaParamsInstructions>
M  ROOT 7
M  POLY_N_BB 7
M  POLY_CA_BB 5
M  POLY_C_BB 3
M  POLY_O_BB 4
M  POLY_IGNORE 1 10 9 14 11 12 13 18 19 20
M  POLY_UPPER 2
M  POLY_LOWER 8
M  POLY_CHG 0
M  POLY_PROPERTIES PROTEIN POLYMER ALPHA_AA ALIPHATIC
M  END

$$$$
DHA_new
     RDKit          3D

 20 19  0  0  0  0  0  0  0  0999 V2000
    2.6988   -1.0635    2.5897 C   0  0  0  0  0  0  0  0  0  0  0  0
    1.6634   -0.2560    1.9216 N   0  0  0  0  0  0  0  0  0  0  0  0
    0.5701   -0.8429    1.2922 C   0  0  0  0  0  0  0  0  0  0  0  0
    0.4539   -2.1048    1.2887 O   0  0  0  0  0  0  0  0  0  0  0  0
   -0.4990   -0.0934    0.6068 C   0  0  0  0  0  0  0  0  0  0  0  0
   -0.4132    1.1986    0.5903 C   0  0  0  0  0  0  0  0  0  0  0  0
   -1.5654   -0.7892   -0.0006 N   0  0  0  0  0  0  0  0  0  0  0  0
   -2.6427   -0.2034   -0.6823 C   0  0  0  0  0  0  0  0  0  0  0  0
   -3.6950   -1.1407   -1.2684 C   0  0  0  0  0  0  0  0  0  0  0  0
   -2.8652    1.0014   -0.8803 O   0  0  0  0  0  0  0  0  0  0  0  0
    2.9377   -0.5766    3.5569 H   0  0  0  0  0  0  0  0  0  0  0  0
    3.6052   -0.9660    1.9532 H   0  0  0  0  0  0  0  0  0  0  0  0
    2.3718   -2.1131    2.7064 H   0  0  0  0  0  0  0  0  0  0  0  0
    1.8374    0.7629    1.9728 H   0  0  0  0  0  0  0  0  0  0  0  0
    0.4173    1.7445    1.0631 H   0  0  0  0  0  0  0  0  0  0  0  0
   -1.1517    1.8073    0.1120 H   0  0  0  0  0  0  0  0  0  0  0  0
   -1.5554   -1.8624    0.0621 H   0  0  0  0  0  0  0  0  0  0  0  0
   -4.4943   -1.2500   -0.5118 H   0  0  0  0  0  0  0  0  0  0  0  0
   -3.2479   -2.1468   -1.3967 H   0  0  0  0  0  0  0  0  0  0  0  0
   -4.0323   -0.7582   -2.2349 H   0  0  0  0  0  0  0  0  0  0  0  0
  1  2  1  0
  1 11  1  0
  1 12  1  0
  1 13  1  0
  2  3  1  0
  2 14  1  0
  3  4  2  0
  3  5  1  0
  5  6  2  3
  5  7  1  0
  6 15  1  0
  6 16  1  0
  7  8  1  0
  7 17  1  0
  8  9  1  0
  8 10  2  0
  9 18  1  0
  9 19  1  0
  9 20  1  0
M  END

> <RosettaParamsInstructions>
M  ROOT 7
M  POLY_N_BB 7
M  POLY_CA_BB 5
M  POLY_C_BB 3
M  POLY_O_BB 4
M  POLY_IGNORE 1 10 9 14 11 12 13 18 19 20
M  POLY_UPPER 2
M  POLY_LOWER 8
M  POLY_CHG 0
M  POLY_PROPERTIES PROTEIN POLYMER ALPHA_AA ALIPHATIC
M  END

$$$$
DHA_new
     RDKit          3D

 20 19  0  0  0  0  0  0  0  0999 V2000
    2.7362   -1.0781    2.5175 C   0  0  0  0  0  0  0  0  0  0  0  0
    1.7355   -0.2641    1.8321 N   0  0  0  0  0  0  0  0  0  0  0  0
    0.5728   -0.8374    1.2756 C   0  0  0  0  0  0  0  0  0  0  0  0
    0.3967   -2.0955    1.3765 O   0  0  0  0  0  0  0  0  0  0  0  0
   -0.4640   -0.0680    0.5771 C   0  0  0  0  0  0  0  0  0  0  0  0
   -0.3402    1.2230    0.4420 C   0  0  0  0  0  0  0  0  0  0  0  0
   -1.5852   -0.7451    0.0602 N   0  0  0  0  0  0  0  0  0  0  0  0
   -2.6670   -0.2117   -0.6262 C   0  0  0  0  0  0  0  0  0  0  0  0
   -3.7561   -1.1409   -1.0854 C   0  0  0  0  0  0  0  0  0  0  0  0
   -2.8648    0.9964   -0.9272 O   0  0  0  0  0  0  0  0  0  0  0  0
    3.6116   -1.2690    1.8755 H   0  0  0  0  0  0  0  0  0  0  0  0
    2.2186   -2.0375    2.8082 H   0  0  0  0  0  0  0  0  0  0  0  0
    3.0739   -0.5171    3.4108 H   0  0  0  0  0  0  0  0  0  0  0  0
    1.9378    0.7454    1.7851 H   0  0  0  0  0  0  0  0  0  0  0  0
    0.5290    1.7207    0.8470 H   0  0  0  0  0  0  0  0  0  0  0  0
   -1.0431    1.8619   -0.0501 H   0  0  0  0  0  0  0  0  0  0  0  0
   -1.5924   -1.7973    0.2224 H   0  0  0  0  0  0  0  0  0  0  0  0
   -3.8638   -1.9728   -0.3641 H   0  0  0  0  0  0  0  0  0  0  0  0
   -4.7307   -0.6301   -1.1505 H   0  0  0  0  0  0  0  0  0  0  0  0
   -3.5114   -1.5351   -2.0855 H   0  0  0  0  0  0  0  0  0  0  0  0
  1  2  1  0
  1 11  1  0
  1 12  1  0
  1 13  1  0
  2  3  1  0
  2 14  1  0
  3  4  2  0
  3  5  1  0
  5  6  2  3
  5  7  1  0
  6 15  1  0
  6 16  1  0
  7  8  1  0
  7 17  1  0
  8  9  1  0
  8 10  2  0
  9 18  1  0
  9 19  1  0
  9 20  1  0
M  END

> <RosettaParamsInstructions>
M  ROOT 7
M  POLY_N_BB 7
M  POLY_CA_BB 5
M  POLY_C_BB 3
M  POLY_O_BB 4
M  POLY_IGNORE 1 10 9 14 11 12 13 18 19 20
M  POLY_UPPER 2
M  POLY_LOWER 8
M  POLY_CHG 0
M  POLY_PROPERTIES PROTEIN POLYMER ALPHA_AA ALIPHATIC
M  END

$$$$
DHA_new
     RDKit          3D

 20 19  0  0  0  0  0  0  0  0999 V2000
    2.6337   -1.0380    2.6977 C   0  0  0  0  0  0  0  0  0  0  0  0
    1.6809   -0.2488    1.8904 N   0  0  0  0  0  0  0  0  0  0  0  0
    0.5312   -0.8184    1.3511 C   0  0  0  0  0  0  0  0  0  0  0  0
    0.3093   -2.0362    1.5636 O   0  0  0  0  0  0  0  0  0  0  0  0
   -0.4362   -0.0753    0.5482 C   0  0  0  0  0  0  0  0  0  0  0  0
   -0.2572    1.1989    0.2934 C   0  0  0  0  0  0  0  0  0  0  0  0
   -1.5664   -0.7551    0.0525 N   0  0  0  0  0  0  0  0  0  0  0  0
   -2.5959   -0.2541   -0.7190 C   0  0  0  0  0  0  0  0  0  0  0  0
   -3.7464   -1.1525   -1.1645 C   0  0  0  0  0  0  0  0  0  0  0  0
   -2.7040    0.9107   -1.1177 O   0  0  0  0  0  0  0  0  0  0  0  0
    3.2704   -1.5711    1.9628 H   0  0  0  0  0  0  0  0  0  0  0  0
    3.2764   -0.3710    3.2918 H   0  0  0  0  0  0  0  0  0  0  0  0
    2.0599   -1.7521    3.3261 H   0  0  0  0  0  0  0  0  0  0  0  0
    1.9136    0.7469    1.7478 H   0  0  0  0  0  0  0  0  0  0  0  0
    0.6360    1.6795    0.7015 H   0  0  0  0  0  0  0  0  0  0  0  0
   -0.9587    1.7407   -0.2895 H   0  0  0  0  0  0  0  0  0  0  0  0
   -1.6313   -1.8083    0.3136 H   0  0  0  0  0  0  0  0  0  0  0  0
   -3.8407   -1.1297   -2.2657 H   0  0  0  0  0  0  0  0  0  0  0  0
   -3.5407   -2.1757   -0.7915 H   0  0  0  0  0  0  0  0  0  0  0  0
   -4.6404   -0.7427   -0.6518 H   0  0  0  0  0  0  0  0  0  0  0  0
  1  2  1  0
  1 11  1  0
  1 12  1  0
  1 13  1  0
  2  3  1  0
  2 14  1  0
  3  4  2  0
  3  5  1  0
  5  6  2  3
  5  7  1  0
  6 15  1  0
  6 16  1  0
  7  8  1  0
  7 17  1  0
  8  9  1  0
  8 10  2  0
  9 18  1  0
  9 19  1  0
  9 20  1  0
M  END

> <RosettaParamsInstructions>
M  ROOT 7
M  POLY_N_BB 7
M  POLY_CA_BB 5
M  POLY_C_BB 3
M  POLY_O_BB 4
M  POLY_IGNORE 1 10 9 14 11 12 13 18 19 20
M  POLY_UPPER 2
M  POLY_LOWER 8
M  POLY_CHG 0
M  POLY_PROPERTIES PROTEIN POLYMER ALPHA_AA ALIPHATIC
M  END

$$$$
DHA_new
     RDKit          3D

 20 19  0  0  0  0  0  0  0  0999 V2000
    2.7058   -1.0371    2.5870 C   0  0  0  0  0  0  0  0  0  0  0  0
    1.6916   -0.2320    1.8664 N   0  0  0  0  0  0  0  0  0  0  0  0
    0.5719   -0.8612    1.3069 C   0  0  0  0  0  0  0  0  0  0  0  0
    0.4153   -2.1346    1.4130 O   0  0  0  0  0  0  0  0  0  0  0  0
   -0.4632   -0.0974    0.5803 C   0  0  0  0  0  0  0  0  0  0  0  0
   -0.3204    1.1947    0.4631 C   0  0  0  0  0  0  0  0  0  0  0  0
   -1.5741   -0.7816    0.0346 N   0  0  0  0  0  0  0  0  0  0  0  0
   -2.6432   -0.2403   -0.6773 C   0  0  0  0  0  0  0  0  0  0  0  0
   -3.7389   -1.1509   -1.1789 C   0  0  0  0  0  0  0  0  0  0  0  0
   -2.7989    0.9590   -0.9554 O   0  0  0  0  0  0  0  0  0  0  0  0
    3.6678   -0.9727    2.0336 H   0  0  0  0  0  0  0  0  0  0  0  0
    2.8123   -0.6697    3.6298 H   0  0  0  0  0  0  0  0  0  0  0  0
    2.3514   -2.0751    2.6496 H   0  0  0  0  0  0  0  0  0  0  0  0
    1.8523    0.7799    1.8034 H   0  0  0  0  0  0  0  0  0  0  0  0
   -1.0328    1.8033   -0.0498 H   0  0  0  0  0  0  0  0  0  0  0  0
    0.5225    1.7366    0.8737 H   0  0  0  0  0  0  0  0  0  0  0  0
   -1.5684   -1.8371    0.2021 H   0  0  0  0  0  0  0  0  0  0  0  0
   -3.7723   -1.1778   -2.2693 H   0  0  0  0  0  0  0  0  0  0  0  0
   -4.6836   -0.7016   -0.8146 H   0  0  0  0  0  0  0  0  0  0  0  0
   -3.6017   -2.1563   -0.7573 H   0  0  0  0  0  0  0  0  0  0  0  0
  1  2  1  0
  1 11  1  0
  1 12  1  0
  1 13  1  0
  2  3  1  0
  2 14  1  0
  3  4  2  0
  3  5  1  0
  5  6  2  3
  5  7  1  0
  6 15  1  0
  6 16  1  0
  7  8  1  0
  7 17  1  0
  8  9  1  0
  8 10  2  0
  9 18  1  0
  9 19  1  0
  9 20  1  0
M  END

> <RosettaParamsInstructions>
M  ROOT 7
M  POLY_N_BB 7
M  POLY_CA_BB 5
M  POLY_C_BB 3
M  POLY_O_BB 4
M  POLY_IGNORE 1 10 9 14 11 12 13 18 19 20
M  POLY_UPPER 2
M  POLY_LOWER 8
M  POLY_CHG 0
M  POLY_PROPERTIES PROTEIN POLYMER ALPHA_AA ALIPHATIC
M  END

$$$$
DHA_new
     RDKit          3D

 20 19  0  0  0  0  0  0  0  0999 V2000
    2.6757   -1.0395    2.5911 C   0  0  0  0  0  0  0  0  0  0  0  0
    1.6842   -0.2399    1.8568 N   0  0  0  0  0  0  0  0  0  0  0  0
    0.5573   -0.8530    1.3115 C   0  0  0  0  0  0  0  0  0  0  0  0
    0.3960   -2.1150    1.4567 O   0  0  0  0  0  0  0  0  0  0  0  0
   -0.4467   -0.0816    0.5752 C   0  0  0  0  0  0  0  0  0  0  0  0
   -0.2648    1.2099    0.4365 C   0  0  0  0  0  0  0  0  0  0  0  0
   -1.5669   -0.7677    0.0478 N   0  0  0  0  0  0  0  0  0  0  0  0
   -2.6410   -0.2513   -0.6811 C   0  0  0  0  0  0  0  0  0  0  0  0
   -3.7566   -1.1372   -1.1678 C   0  0  0  0  0  0  0  0  0  0  0  0
   -2.7671    0.9502   -0.9836 O   0  0  0  0  0  0  0  0  0  0  0  0
    3.6642   -0.7321    2.2143 H   0  0  0  0  0  0  0  0  0  0  0  0
    2.5482   -2.1165    2.3785 H   0  0  0  0  0  0  0  0  0  0  0  0
    2.5242   -0.8653    3.6668 H   0  0  0  0  0  0  0  0  0  0  0  0
    1.8747    0.7560    1.7793 H   0  0  0  0  0  0  0  0  0  0  0  0
    0.5822    1.7457    0.8321 H   0  0  0  0  0  0  0  0  0  0  0  0
   -0.9567    1.8829   -0.0978 H   0  0  0  0  0  0  0  0  0  0  0  0
   -1.6052   -1.8232    0.2260 H   0  0  0  0  0  0  0  0  0  0  0  0
   -3.4938   -1.6596   -2.0930 H   0  0  0  0  0  0  0  0  0  0  0  0
   -4.7027   -0.5891   -1.2340 H   0  0  0  0  0  0  0  0  0  0  0  0
   -3.9115   -1.9260   -0.3746 H   0  0  0  0  0  0  0  0  0  0  0  0
  1  2  1  0
  1 11  1  0
  1 12  1  0
  1 13  1  0
  2  3  1  0
  2 14  1  0
  3  4  2  0
  3  5  1  0
  5  6  2  3
  5  7  1  0
  6 15  1  0
  6 16  1  0
  7  8  1  0
  7 17  1  0
  8  9  1  0
  8 10  2  0
  9 18  1  0
  9 19  1  0
  9 20  1  0
M  END

> <RosettaParamsInstructions>
M  ROOT 7
M  POLY_N_BB 7
M  POLY_CA_BB 5
M  POLY_C_BB 3
M  POLY_O_BB 4
M  POLY_IGNORE 1 10 9 14 11 12 13 18 19 20
M  POLY_UPPER 2
M  POLY_LOWER 8
M  POLY_CHG 0
M  POLY_PROPERTIES PROTEIN POLYMER ALPHA_AA ALIPHATIC
M  END

$$$$
DHA_new
     RDKit          3D

 20 19  0  0  0  0  0  0  0  0999 V2000
    2.6556   -1.0930    2.5730 C   0  0  0  0  0  0  0  0  0  0  0  0
    1.6963   -0.2282    1.8664 N   0  0  0  0  0  0  0  0  0  0  0  0
    0.5626   -0.8044    1.2958 C   0  0  0  0  0  0  0  0  0  0  0  0
    0.4003   -2.0650    1.4091 O   0  0  0  0  0  0  0  0  0  0  0  0
   -0.4523   -0.0191    0.5697 C   0  0  0  0  0  0  0  0  0  0  0  0
   -0.3236    1.2825    0.4299 C   0  0  0  0  0  0  0  0  0  0  0  0
   -1.5474   -0.7262    0.0435 N   0  0  0  0  0  0  0  0  0  0  0  0
   -2.6441   -0.2252   -0.6836 C   0  0  0  0  0  0  0  0  0  0  0  0
   -3.7077   -1.2044   -1.1463 C   0  0  0  0  0  0  0  0  0  0  0  0
   -2.8334    0.9736   -0.9932 O   0  0  0  0  0  0  0  0  0  0  0  0
    2.2284   -1.4273    3.5565 H   0  0  0  0  0  0  0  0  0  0  0  0
    2.7601   -2.0111    1.9626 H   0  0  0  0  0  0  0  0  0  0  0  0
    3.6075   -0.5763    2.7355 H   0  0  0  0  0  0  0  0  0  0  0  0
    1.8821    0.8029    1.8049 H   0  0  0  0  0  0  0  0  0  0  0  0
   -1.0436    1.8579   -0.0883 H   0  0  0  0  0  0  0  0  0  0  0  0
    0.5373    1.8201    0.8466 H   0  0  0  0  0  0  0  0  0  0  0  0
   -1.5549   -1.7840    0.2141 H   0  0  0  0  0  0  0  0  0  0  0  0
   -4.0078   -0.8895   -2.1457 H   0  0  0  0  0  0  0  0  0  0  0  0
   -4.5297   -1.1087   -0.3991 H   0  0  0  0  0  0  0  0  0  0  0  0
   -3.2923   -2.2269   -1.1105 H   0  0  0  0  0  0  0  0  0  0  0  0
  1  2  1  0
  1 11  1  0
  1 12  1  0
  1 13  1  0
  2  3  1  0
  2 14  1  0
  3  4  2  0
  3  5  1  0
  5  6  2  3
  5  7  1  0
  6 15  1  0
  6 16  1  0
  7  8  1  0
  7 17  1  0
  8  9  1  0
  8 10  2  0
  9 18  1  0
  9 19  1  0
  9 20  1  0
M  END

> <RosettaParamsInstructions>
M  ROOT 7
M  POLY_N_BB 7
M  POLY_CA_BB 5
M  POLY_C_BB 3
M  POLY_O_BB 4
M  POLY_IGNORE 1 10 9 14 11 12 13 18 19 20
M  POLY_UPPER 2
M  POLY_LOWER 8
M  POLY_CHG 0
M  POLY_PROPERTIES PROTEIN POLYMER ALPHA_AA ALIPHATIC
M  END

$$$$
DHA_new
     RDKit          3D

 20 19  0  0  0  0  0  0  0  0999 V2000
    2.6019   -1.0556    2.6548 C   0  0  0  0  0  0  0  0  0  0  0  0
    1.6696   -0.2155    1.8728 N   0  0  0  0  0  0  0  0  0  0  0  0
    0.5354   -0.8114    1.3443 C   0  0  0  0  0  0  0  0  0  0  0  0
    0.3240   -2.0417    1.5382 O   0  0  0  0  0  0  0  0  0  0  0  0
   -0.4540   -0.0564    0.5500 C   0  0  0  0  0  0  0  0  0  0  0  0
   -0.2729    1.2170    0.3265 C   0  0  0  0  0  0  0  0  0  0  0  0
   -1.5749   -0.7589    0.0573 N   0  0  0  0  0  0  0  0  0  0  0  0
   -2.5900   -0.2194   -0.6962 C   0  0  0  0  0  0  0  0  0  0  0  0
   -3.7126   -1.1337   -1.1346 C   0  0  0  0  0  0  0  0  0  0  0  0
   -2.6951    0.9440   -1.0636 O   0  0  0  0  0  0  0  0  0  0  0  0
    3.5920   -0.5979    2.7305 H   0  0  0  0  0  0  0  0  0  0  0  0
    2.2129   -1.2601    3.6577 H   0  0  0  0  0  0  0  0  0  0  0  0
    2.7000   -1.9950    2.0677 H   0  0  0  0  0  0  0  0  0  0  0  0
    1.8840    0.7846    1.7409 H   0  0  0  0  0  0  0  0  0  0  0  0
   -0.9636    1.8076   -0.2445 H   0  0  0  0  0  0  0  0  0  0  0  0
    0.6112    1.7349    0.7246 H   0  0  0  0  0  0  0  0  0  0  0  0
   -1.6194   -1.8092    0.3048 H   0  0  0  0  0  0  0  0  0  0  0  0
   -3.3630   -1.7319   -2.0091 H   0  0  0  0  0  0  0  0  0  0  0  0
   -3.8686   -1.8659   -0.3047 H   0  0  0  0  0  0  0  0  0  0  0  0
   -4.6232   -0.5876   -1.3768 H   0  0  0  0  0  0  0  0  0  0  0  0
  1  2  1  0
  1 11  1  0
  1 12  1  0
  1 13  1  0
  2  3  1  0
  2 14  1  0
  3  4  2  0
  3  5  1  0
  5  6  2  3
  5  7  1  0
  6 15  1  0
  6 16  1  0
  7  8  1  0
  7 17  1  0
  8  9  1  0
  8 10  2  0
  9 18  1  0
  9 19  1  0
  9 20  1  0
M  END

> <RosettaParamsInstructions>
M  ROOT 7
M  POLY_N_BB 7
M  POLY_CA_BB 5
M  POLY_C_BB 3
M  POLY_O_BB 4
M  POLY_IGNORE 1 10 9 14 11 12 13 18 19 20
M  POLY_UPPER 2
M  POLY_LOWER 8
M  POLY_CHG 0
M  POLY_PROPERTIES PROTEIN POLYMER ALPHA_AA ALIPHATIC
M  END

$$$$
DHA_new
     RDKit          3D

 20 19  0  0  0  0  0  0  0  0999 V2000
    2.6672   -1.0473    2.5764 C   0  0  0  0  0  0  0  0  0  0  0  0
    1.6597   -0.2618    1.8562 N   0  0  0  0  0  0  0  0  0  0  0  0
    0.5357   -0.8668    1.2982 C   0  0  0  0  0  0  0  0  0  0  0  0
    0.3909   -2.1339    1.4235 O   0  0  0  0  0  0  0  0  0  0  0  0
   -0.4601   -0.0765    0.5841 C   0  0  0  0  0  0  0  0  0  0  0  0
   -0.3058    1.2179    0.4598 C   0  0  0  0  0  0  0  0  0  0  0  0
   -1.5670   -0.7886    0.0538 N   0  0  0  0  0  0  0  0  0  0  0  0
   -2.6284   -0.2413   -0.6585 C   0  0  0  0  0  0  0  0  0  0  0  0
   -3.7449   -1.1394   -1.1635 C   0  0  0  0  0  0  0  0  0  0  0  0
   -2.7896    0.9601   -0.9521 O   0  0  0  0  0  0  0  0  0  0  0  0
    3.6843   -0.8015    2.1577 H   0  0  0  0  0  0  0  0  0  0  0  0
    2.5762   -0.7911    3.6409 H   0  0  0  0  0  0  0  0  0  0  0  0
    2.5204   -2.1161    2.4351 H   0  0  0  0  0  0  0  0  0  0  0  0
    1.8362    0.7405    1.7934 H   0  0  0  0  0  0  0  0  0  0  0  0
   -1.0071    1.8587   -0.0571 H   0  0  0  0  0  0  0  0  0  0  0  0
    0.5409    1.7776    0.8629 H   0  0  0  0  0  0  0  0  0  0  0  0
   -1.6035   -1.8399    0.2068 H   0  0  0  0  0  0  0  0  0  0  0  0
   -3.7687   -2.0191   -0.4621 H   0  0  0  0  0  0  0  0  0  0  0  0
   -3.4367   -1.4733   -2.1666 H   0  0  0  0  0  0  0  0  0  0  0  0
   -4.7060   -0.6104   -1.1482 H   0  0  0  0  0  0  0  0  0  0  0  0
  1  2  1  0
  1 11  1  0
  1 12  1  0
  1 13  1  0
  2  3  1  0
  2 14  1  0
  3  4  2  0
  3  5  1  0
  5  6  2  3
  5  7  1  0
  6 15  1  0
  6 16  1  0
  7  8  1  0
  7 17  1  0
  8  9  1  0
  8 10  2  0
  9 18  1  0
  9 19  1  0
  9 20  1  0
M  END

> <RosettaParamsInstructions>
M  ROOT 7
M  POLY_N_BB 7
M  POLY_CA_BB 5
M  POLY_C_BB 3
M  POLY_O_BB 4
M  POLY_IGNORE 1 10 9 14 11 12 13 18 19 20
M  POLY_UPPER 2
M  POLY_LOWER 8
M  POLY_CHG 0
M  POLY_PROPERTIES PROTEIN POLYMER ALPHA_AA ALIPHATIC
M  END

$$$$
DHA_new
     RDKit          3D

 20 19  0  0  0  0  0  0  0  0999 V2000
    2.7006   -1.0250    2.5915 C   0  0  0  0  0  0  0  0  0  0  0  0
    1.6563   -0.2266    1.9128 N   0  0  0  0  0  0  0  0  0  0  0  0
    0.5603   -0.8503    1.2952 C   0  0  0  0  0  0  0  0  0  0  0  0
    0.4805   -2.1028    1.3284 O   0  0  0  0  0  0  0  0  0  0  0  0
   -0.4780   -0.0948    0.6227 C   0  0  0  0  0  0  0  0  0  0  0  0
   -0.3847    1.2196    0.5935 C   0  0  0  0  0  0  0  0  0  0  0  0
   -1.5517   -0.7942    0.0235 N   0  0  0  0  0  0  0  0  0  0  0  0
   -2.6451   -0.2825   -0.6661 C   0  0  0  0  0  0  0  0  0  0  0  0
   -3.7228   -1.1501   -1.2568 C   0  0  0  0  0  0  0  0  0  0  0  0
   -2.8317    0.9400   -0.8574 O   0  0  0  0  0  0  0  0  0  0  0  0
    2.9291   -0.6046    3.5819 H   0  0  0  0  0  0  0  0  0  0  0  0
    3.5856   -1.0473    1.9367 H   0  0  0  0  0  0  0  0  0  0  0  0
    2.3348   -2.0815    2.6479 H   0  0  0  0  0  0  0  0  0  0  0  0
    1.8369    0.7964    1.9550 H   0  0  0  0  0  0  0  0  0  0  0  0
    0.4449    1.7802    1.0553 H   0  0  0  0  0  0  0  0  0  0  0  0
   -1.0924    1.8926    0.1250 H   0  0  0  0  0  0  0  0  0  0  0  0
   -1.5269   -1.8699    0.1081 H   0  0  0  0  0  0  0  0  0  0  0  0
   -4.6351   -1.1226   -0.6430 H   0  0  0  0  0  0  0  0  0  0  0  0
   -3.3936   -2.2095   -1.3093 H   0  0  0  0  0  0  0  0  0  0  0  0
   -3.8734   -0.8193   -2.3040 H   0  0  0  0  0  0  0  0  0  0  0  0
  1  2  1  0
  1 11  1  0
  1 12  1  0
  1 13  1  0
  2  3  1  0
  2 14  1  0
  3  4  2  0
  3  5  1  0
  5  6  2  3
  5  7  1  0
  6 15  1  0
  6 16  1  0
  7  8  1  0
  7 17  1  0
  8  9  1  0
  8 10  2  0
  9 18  1  0
  9 19  1  0
  9 20  1  0
M  END

> <RosettaParamsInstructions>
M  ROOT 7
M  POLY_N_BB 7
M  POLY_CA_BB 5
M  POLY_C_BB 3
M  POLY_O_BB 4
M  POLY_IGNORE 1 10 9 14 11 12 13 18 19 20
M  POLY_UPPER 2
M  POLY_LOWER 8
M  POLY_CHG 0
M  POLY_PROPERTIES PROTEIN POLYMER ALPHA_AA ALIPHATIC
M  END

$$$$
DHA_new
     RDKit          3D

 20 19  0  0  0  0  0  0  0  0999 V2000
    2.6639   -1.0653    2.5694 C   0  0  0  0  0  0  0  0  0  0  0  0
    1.6744   -0.2371    1.8615 N   0  0  0  0  0  0  0  0  0  0  0  0
    0.5678   -0.8529    1.3099 C   0  0  0  0  0  0  0  0  0  0  0  0
    0.4268   -2.0993    1.4216 O   0  0  0  0  0  0  0  0  0  0  0  0
   -0.4614   -0.0819    0.5877 C   0  0  0  0  0  0  0  0  0  0  0  0
   -0.3340    1.2158    0.4601 C   0  0  0  0  0  0  0  0  0  0  0  0
   -1.5654   -0.7870    0.0516 N   0  0  0  0  0  0  0  0  0  0  0  0
   -2.6384   -0.2518   -0.6595 C   0  0  0  0  0  0  0  0  0  0  0  0
   -3.7300   -1.1571   -1.1571 C   0  0  0  0  0  0  0  0  0  0  0  0
   -2.7604    0.9487   -0.9179 O   0  0  0  0  0  0  0  0  0  0  0  0
    2.9746   -0.4741    3.4526 H   0  0  0  0  0  0  0  0  0  0  0  0
    2.2301   -2.0487    2.8475 H   0  0  0  0  0  0  0  0  0  0  0  0
    3.5381   -1.1882    1.8982 H   0  0  0  0  0  0  0  0  0  0  0  0
    1.8545    0.7720    1.8097 H   0  0  0  0  0  0  0  0  0  0  0  0
    0.5257    1.7636    0.8778 H   0  0  0  0  0  0  0  0  0  0  0  0
   -1.0264    1.8519   -0.0441 H   0  0  0  0  0  0  0  0  0  0  0  0
   -1.5555   -1.8479    0.2226 H   0  0  0  0  0  0  0  0  0  0  0  0
   -3.4083   -2.2048   -1.1731 H   0  0  0  0  0  0  0  0  0  0  0  0
   -4.5918   -1.0594   -0.4886 H   0  0  0  0  0  0  0  0  0  0  0  0
   -3.9907   -0.8489   -2.1890 H   0  0  0  0  0  0  0  0  0  0  0  0
  1  2  1  0
  1 11  1  0
  1 12  1  0
  1 13  1  0
  2  3  1  0
  2 14  1  0
  3  4  2  0
  3  5  1  0
  5  6  2  3
  5  7  1  0
  6 15  1  0
  6 16  1  0
  7  8  1  0
  7 17  1  0
  8  9  1  0
  8 10  2  0
  9 18  1  0
  9 19  1  0
  9 20  1  0
M  END

> <RosettaParamsInstructions>
M  ROOT 7
M  POLY_N_BB 7
M  POLY_CA_BB 5
M  POLY_C_BB 3
M  POLY_O_BB 4
M  POLY_IGNORE 1 10 9 14 11 12 13 18 19 20
M  POLY_UPPER 2
M  POLY_LOWER 8
M  POLY_CHG 0
M  POLY_PROPERTIES PROTEIN POLYMER ALPHA_AA ALIPHATIC
M  END

$$$$
DHA_new
     RDKit          3D

 20 19  0  0  0  0  0  0  0  0999 V2000
    2.7034   -1.0497    2.5580 C   0  0  0  0  0  0  0  0  0  0  0  0
    1.7026   -0.2327    1.8629 N   0  0  0  0  0  0  0  0  0  0  0  0
    0.5873   -0.8454    1.2924 C   0  0  0  0  0  0  0  0  0  0  0  0
    0.4579   -2.1177    1.3872 O   0  0  0  0  0  0  0  0  0  0  0  0
   -0.4579   -0.0793    0.5780 C   0  0  0  0  0  0  0  0  0  0  0  0
   -0.3165    1.2238    0.4862 C   0  0  0  0  0  0  0  0  0  0  0  0
   -1.5644   -0.7624    0.0221 N   0  0  0  0  0  0  0  0  0  0  0  0
   -2.6547   -0.2681   -0.6822 C   0  0  0  0  0  0  0  0  0  0  0  0
   -3.7488   -1.1637   -1.2024 C   0  0  0  0  0  0  0  0  0  0  0  0
   -2.8219    0.9436   -0.9424 O   0  0  0  0  0  0  0  0  0  0  0  0
    3.7123   -0.6774    2.3664 H   0  0  0  0  0  0  0  0  0  0  0  0
    2.4907   -0.9525    3.6346 H   0  0  0  0  0  0  0  0  0  0  0  0
    2.5637   -2.1284    2.2956 H   0  0  0  0  0  0  0  0  0  0  0  0
    1.8664    0.7803    1.8230 H   0  0  0  0  0  0  0  0  0  0  0  0
   -1.0503    1.8323   -0.0247 H   0  0  0  0  0  0  0  0  0  0  0  0
    0.5267    1.7547    0.9085 H   0  0  0  0  0  0  0  0  0  0  0  0
   -1.5330   -1.8298    0.1835 H   0  0  0  0  0  0  0  0  0  0  0  0
   -3.4449   -2.2162   -1.1525 H   0  0  0  0  0  0  0  0  0  0  0  0
   -4.5852   -1.0404   -0.4563 H   0  0  0  0  0  0  0  0  0  0  0  0
   -4.0398   -0.8232   -2.1970 H   0  0  0  0  0  0  0  0  0  0  0  0
  1  2  1  0
  1 11  1  0
  1 12  1  0
  1 13  1  0
  2  3  1  0
  2 14  1  0
  3  4  2  0
  3  5  1  0
  5  6  2  3
  5  7  1  0
  6 15  1  0
  6 16  1  0
  7  8  1  0
  7 17  1  0
  8  9  1  0
  8 10  2  0
  9 18  1  0
  9 19  1  0
  9 20  1  0
M  END

> <RosettaParamsInstructions>
M  ROOT 7
M  POLY_N_BB 7
M  POLY_CA_BB 5
M  POLY_C_BB 3
M  POLY_O_BB 4
M  POLY_IGNORE 1 10 9 14 11 12 13 18 19 20
M  POLY_UPPER 2
M  POLY_LOWER 8
M  POLY_CHG 0
M  POLY_PROPERTIES PROTEIN POLYMER ALPHA_AA ALIPHATIC
M  END

$$$$
DHA_new
     RDKit          3D

 20 19  0  0  0  0  0  0  0  0999 V2000
    2.6152   -1.0836    2.6518 C   0  0  0  0  0  0  0  0  0  0  0  0
    1.6788   -0.2173    1.9311 N   0  0  0  0  0  0  0  0  0  0  0  0
    0.5528   -0.7937    1.3243 C   0  0  0  0  0  0  0  0  0  0  0  0
    0.3965   -2.0547    1.4299 O   0  0  0  0  0  0  0  0  0  0  0  0
   -0.4667   -0.0398    0.5701 C   0  0  0  0  0  0  0  0  0  0  0  0
   -0.3015    1.2603    0.4638 C   0  0  0  0  0  0  0  0  0  0  0  0
   -1.5590   -0.7494    0.0057 N   0  0  0  0  0  0  0  0  0  0  0  0
   -2.6206   -0.2315   -0.7368 C   0  0  0  0  0  0  0  0  0  0  0  0
   -3.6757   -1.1945   -1.2373 C   0  0  0  0  0  0  0  0  0  0  0  0
   -2.8188    0.9544   -1.0504 O   0  0  0  0  0  0  0  0  0  0  0  0
    2.3347   -1.0684    3.7267 H   0  0  0  0  0  0  0  0  0  0  0  0
    3.6400   -0.6733    2.5011 H   0  0  0  0  0  0  0  0  0  0  0  0
    2.5366   -2.0912    2.2185 H   0  0  0  0  0  0  0  0  0  0  0  0
    1.9148    0.7982    1.9146 H   0  0  0  0  0  0  0  0  0  0  0  0
   -1.0330    1.8654   -0.0877 H   0  0  0  0  0  0  0  0  0  0  0  0
    0.5579    1.7535    0.9183 H   0  0  0  0  0  0  0  0  0  0  0  0
   -1.5522   -1.8040    0.1793 H   0  0  0  0  0  0  0  0  0  0  0  0
   -3.3728   -1.6238   -2.1992 H   0  0  0  0  0  0  0  0  0  0  0  0
   -3.7830   -1.9637   -0.4351 H   0  0  0  0  0  0  0  0  0  0  0  0
   -4.6503   -0.6952   -1.3478 H   0  0  0  0  0  0  0  0  0  0  0  0
  1  2  1  0
  1 11  1  0
  1 12  1  0
  1 13  1  0
  2  3  1  0
  2 14  1  0
  3  4  2  0
  3  5  1  0
  5  6  2  3
  5  7  1  0
  6 15  1  0
  6 16  1  0
  7  8  1  0
  7 17  1  0
  8  9  1  0
  8 10  2  0
  9 18  1  0
  9 19  1  0
  9 20  1  0
M  END

> <RosettaParamsInstructions>
M  ROOT 7
M  POLY_N_BB 7
M  POLY_CA_BB 5
M  POLY_C_BB 3
M  POLY_O_BB 4
M  POLY_IGNORE 1 10 9 14 11 12 13 18 19 20
M  POLY_UPPER 2
M  POLY_LOWER 8
M  POLY_CHG 0
M  POLY_PROPERTIES PROTEIN POLYMER ALPHA_AA ALIPHATIC
M  END

$$$$
DHA_new
     RDKit          3D

 20 19  0  0  0  0  0  0  0  0999 V2000
    2.6999   -1.0301    2.5903 C   0  0  0  0  0  0  0  0  0  0  0  0
    1.6534   -0.2488    1.9129 N   0  0  0  0  0  0  0  0  0  0  0  0
    0.5621   -0.8469    1.2890 C   0  0  0  0  0  0  0  0  0  0  0  0
    0.4664   -2.1329    1.3064 O   0  0  0  0  0  0  0  0  0  0  0  0
   -0.4837   -0.0878    0.6133 C   0  0  0  0  0  0  0  0  0  0  0  0
   -0.4075    1.2177    0.5830 C   0  0  0  0  0  0  0  0  0  0  0  0
   -1.5567   -0.7876    0.0064 N   0  0  0  0  0  0  0  0  0  0  0  0
   -2.6366   -0.2425   -0.6775 C   0  0  0  0  0  0  0  0  0  0  0  0
   -3.6853   -1.1641   -1.2568 C   0  0  0  0  0  0  0  0  0  0  0  0
   -2.8298    0.9792   -0.8655 O   0  0  0  0  0  0  0  0  0  0  0  0
    2.5486   -1.0320    3.6850 H   0  0  0  0  0  0  0  0  0  0  0  0
    3.6703   -0.5986    2.2837 H   0  0  0  0  0  0  0  0  0  0  0  0
    2.6434   -2.0871    2.2411 H   0  0  0  0  0  0  0  0  0  0  0  0
    1.7923    0.7648    1.9375 H   0  0  0  0  0  0  0  0  0  0  0  0
    0.4261    1.7105    1.0574 H   0  0  0  0  0  0  0  0  0  0  0  0
   -1.1111    1.8822    0.1193 H   0  0  0  0  0  0  0  0  0  0  0  0
   -1.5268   -1.8527    0.0867 H   0  0  0  0  0  0  0  0  0  0  0  0
   -3.5233   -2.1835   -0.9019 H   0  0  0  0  0  0  0  0  0  0  0  0
   -3.6302   -1.0998   -2.3545 H   0  0  0  0  0  0  0  0  0  0  0  0
   -4.6778   -0.8121   -0.9150 H   0  0  0  0  0  0  0  0  0  0  0  0
  1  2  1  0
  1 11  1  0
  1 12  1  0
  1 13  1  0
  2  3  1  0
  2 14  1  0
  3  4  2  0
  3  5  1  0
  5  6  2  3
  5  7  1  0
  6 15  1  0
  6 16  1  0
  7  8  1  0
  7 17  1  0
  8  9  1  0
  8 10  2  0
  9 18  1  0
  9 19  1  0
  9 20  1  0
M  END

> <RosettaParamsInstructions>
M  ROOT 7
M  POLY_N_BB 7
M  POLY_CA_BB 5
M  POLY_C_BB 3
M  POLY_O_BB 4
M  POLY_IGNORE 1 10 9 14 11 12 13 18 19 20
M  POLY_UPPER 2
M  POLY_LOWER 8
M  POLY_CHG 0
M  POLY_PROPERTIES PROTEIN POLYMER ALPHA_AA ALIPHATIC
M  END

$$$$
DHA_new
     RDKit          3D

 20 19  0  0  0  0  0  0  0  0999 V2000
    2.6750   -1.0842    2.5923 C   0  0  0  0  0  0  0  0  0  0  0  0
    1.6934   -0.2564    1.8502 N   0  0  0  0  0  0  0  0  0  0  0  0
    0.5468   -0.8368    1.3093 C   0  0  0  0  0  0  0  0  0  0  0  0
    0.3680   -2.0756    1.4668 O   0  0  0  0  0  0  0  0  0  0  0  0
   -0.4593   -0.0912    0.5704 C   0  0  0  0  0  0  0  0  0  0  0  0
   -0.2967    1.1852    0.3957 C   0  0  0  0  0  0  0  0  0  0  0  0
   -1.5847   -0.7642    0.0612 N   0  0  0  0  0  0  0  0  0  0  0  0
   -2.6360   -0.2182   -0.6618 C   0  0  0  0  0  0  0  0  0  0  0  0
   -3.7572   -1.1349   -1.1173 C   0  0  0  0  0  0  0  0  0  0  0  0
   -2.7812    0.9736   -0.9967 O   0  0  0  0  0  0  0  0  0  0  0  0
    2.2625   -2.0790    2.8001 H   0  0  0  0  0  0  0  0  0  0  0  0
    2.9046   -0.5512    3.5489 H   0  0  0  0  0  0  0  0  0  0  0  0
    3.5796   -1.1046    1.9614 H   0  0  0  0  0  0  0  0  0  0  0  0
    1.9052    0.7502    1.7607 H   0  0  0  0  0  0  0  0  0  0  0  0
    0.5769    1.7406    0.7840 H   0  0  0  0  0  0  0  0  0  0  0  0
   -0.9790    1.8197   -0.1325 H   0  0  0  0  0  0  0  0  0  0  0  0
   -1.6200   -1.8093    0.2609 H   0  0  0  0  0  0  0  0  0  0  0  0
   -4.6299   -1.0533   -0.4651 H   0  0  0  0  0  0  0  0  0  0  0  0
   -3.3990   -2.1927   -1.0874 H   0  0  0  0  0  0  0  0  0  0  0  0
   -3.9756   -0.8700   -2.1601 H   0  0  0  0  0  0  0  0  0  0  0  0
  1  2  1  0
  1 11  1  0
  1 12  1  0
  1 13  1  0
  2  3  1  0
  2 14  1  0
  3  4  2  0
  3  5  1  0
  5  6  2  3
  5  7  1  0
  6 15  1  0
  6 16  1  0
  7  8  1  0
  7 17  1  0
  8  9  1  0
  8 10  2  0
  9 18  1  0
  9 19  1  0
  9 20  1  0
M  END

> <RosettaParamsInstructions>
M  ROOT 7
M  POLY_N_BB 7
M  POLY_CA_BB 5
M  POLY_C_BB 3
M  POLY_O_BB 4
M  POLY_IGNORE 1 10 9 14 11 12 13 18 19 20
M  POLY_UPPER 2
M  POLY_LOWER 8
M  POLY_CHG 0
M  POLY_PROPERTIES PROTEIN POLYMER ALPHA_AA ALIPHATIC
M  END

$$$$
DHA_new
     RDKit          3D

 20 19  0  0  0  0  0  0  0  0999 V2000
    2.6422   -1.0566    2.5718 C   0  0  0  0  0  0  0  0  0  0  0  0
    1.6576   -0.2061    1.8464 N   0  0  0  0  0  0  0  0  0  0  0  0
    0.5620   -0.8538    1.3169 C   0  0  0  0  0  0  0  0  0  0  0  0
    0.4120   -2.0855    1.4435 O   0  0  0  0  0  0  0  0  0  0  0  0
   -0.4768   -0.0982    0.5763 C   0  0  0  0  0  0  0  0  0  0  0  0
   -0.3358    1.1989    0.4330 C   0  0  0  0  0  0  0  0  0  0  0  0
   -1.5833   -0.7923    0.0484 N   0  0  0  0  0  0  0  0  0  0  0  0
   -2.6203   -0.2133   -0.6604 C   0  0  0  0  0  0  0  0  0  0  0  0
   -3.7094   -1.1585   -1.1344 C   0  0  0  0  0  0  0  0  0  0  0  0
   -2.7136    0.9984   -0.9262 O   0  0  0  0  0  0  0  0  0  0  0  0
    2.4055   -0.9394    3.6375 H   0  0  0  0  0  0  0  0  0  0  0  0
    2.5590   -2.1006    2.2583 H   0  0  0  0  0  0  0  0  0  0  0  0
    3.6368   -0.6955    2.2853 H   0  0  0  0  0  0  0  0  0  0  0  0
    1.8854    0.7877    1.8070 H   0  0  0  0  0  0  0  0  0  0  0  0
   -0.9994    1.8767   -0.0741 H   0  0  0  0  0  0  0  0  0  0  0  0
    0.5518    1.7108    0.8643 H   0  0  0  0  0  0  0  0  0  0  0  0
   -1.6164   -1.8515    0.2134 H   0  0  0  0  0  0  0  0  0  0  0  0
   -4.6114   -0.6212   -1.4231 H   0  0  0  0  0  0  0  0  0  0  0  0
   -3.9594   -1.8763   -0.3310 H   0  0  0  0  0  0  0  0  0  0  0  0
   -3.2929   -1.6760   -2.0121 H   0  0  0  0  0  0  0  0  0  0  0  0
  1  2  1  0
  1 11  1  0
  1 12  1  0
  1 13  1  0
  2  3  1  0
  2 14  1  0
  3  4  2  0
  3  5  1  0
  5  6  2  3
  5  7  1  0
  6 15  1  0
  6 16  1  0
  7  8  1  0
  7 17  1  0
  8  9  1  0
  8 10  2  0
  9 18  1  0
  9 19  1  0
  9 20  1  0
M  END

> <RosettaParamsInstructions>
M  ROOT 7
M  POLY_N_BB 7
M  POLY_CA_BB 5
M  POLY_C_BB 3
M  POLY_O_BB 4
M  POLY_IGNORE 1 10 9 14 11 12 13 18 19 20
M  POLY_UPPER 2
M  POLY_LOWER 8
M  POLY_CHG 0
M  POLY_PROPERTIES PROTEIN POLYMER ALPHA_AA ALIPHATIC
M  END

$$$$
DHA_new
     RDKit          3D

 20 19  0  0  0  0  0  0  0  0999 V2000
    2.7035   -1.1038    2.5071 C   0  0  0  0  0  0  0  0  0  0  0  0
    1.7060   -0.2440    1.8665 N   0  0  0  0  0  0  0  0  0  0  0  0
    0.5741   -0.8060    1.2631 C   0  0  0  0  0  0  0  0  0  0  0  0
    0.4458   -2.0786    1.2919 O   0  0  0  0  0  0  0  0  0  0  0  0
   -0.4679   -0.0409    0.6046 C   0  0  0  0  0  0  0  0  0  0  0  0
   -0.3662    1.2722    0.5574 C   0  0  0  0  0  0  0  0  0  0  0  0
   -1.5606   -0.7619    0.0363 N   0  0  0  0  0  0  0  0  0  0  0  0
   -2.6598   -0.2338   -0.6360 C   0  0  0  0  0  0  0  0  0  0  0  0
   -3.7064   -1.1715   -1.1604 C   0  0  0  0  0  0  0  0  0  0  0  0
   -2.8847    0.9798   -0.8624 O   0  0  0  0  0  0  0  0  0  0  0  0
    3.7036   -0.7275    2.2230 H   0  0  0  0  0  0  0  0  0  0  0  0
    2.5755   -0.9785    3.6061 H   0  0  0  0  0  0  0  0  0  0  0  0
    2.5364   -2.1349    2.1653 H   0  0  0  0  0  0  0  0  0  0  0  0
    1.8624    0.7665    1.8749 H   0  0  0  0  0  0  0  0  0  0  0  0
   -1.1097    1.9039    0.0806 H   0  0  0  0  0  0  0  0  0  0  0  0
    0.4888    1.7681    1.0075 H   0  0  0  0  0  0  0  0  0  0  0  0
   -1.5248   -1.8141    0.1415 H   0  0  0  0  0  0  0  0  0  0  0  0
   -3.7136   -2.0913   -0.5176 H   0  0  0  0  0  0  0  0  0  0  0  0
   -4.6941   -0.7100   -1.0967 H   0  0  0  0  0  0  0  0  0  0  0  0
   -3.5147   -1.4460   -2.2119 H   0  0  0  0  0  0  0  0  0  0  0  0
  1  2  1  0
  1 11  1  0
  1 12  1  0
  1 13  1  0
  2  3  1  0
  2 14  1  0
  3  4  2  0
  3  5  1  0
  5  6  2  3
  5  7  1  0
  6 15  1  0
  6 16  1  0
  7  8  1  0
  7 17  1  0
  8  9  1  0
  8 10  2  0
  9 18  1  0
  9 19  1  0
  9 20  1  0
M  END

> <RosettaParamsInstructions>
M  ROOT 7
M  POLY_N_BB 7
M  POLY_CA_BB 5
M  POLY_C_BB 3
M  POLY_O_BB 4
M  POLY_IGNORE 1 10 9 14 11 12 13 18 19 20
M  POLY_UPPER 2
M  POLY_LOWER 8
M  POLY_CHG 0
M  POLY_PROPERTIES PROTEIN POLYMER ALPHA_AA ALIPHATIC
M  END

$$$$
DHA_new
     RDKit          3D

 20 19  0  0  0  0  0  0  0  0999 V2000
    2.6742   -1.0527    2.5828 C   0  0  0  0  0  0  0  0  0  0  0  0
    1.6534   -0.2341    1.9148 N   0  0  0  0  0  0  0  0  0  0  0  0
    0.5683   -0.8375    1.2956 C   0  0  0  0  0  0  0  0  0  0  0  0
    0.4675   -2.0941    1.3123 O   0  0  0  0  0  0  0  0  0  0  0  0
   -0.4763   -0.0763    0.6166 C   0  0  0  0  0  0  0  0  0  0  0  0
   -0.3834    1.2255    0.5923 C   0  0  0  0  0  0  0  0  0  0  0  0
   -1.5592   -0.7831    0.0049 N   0  0  0  0  0  0  0  0  0  0  0  0
   -2.6386   -0.2570   -0.6808 C   0  0  0  0  0  0  0  0  0  0  0  0
   -3.6863   -1.1711   -1.2584 C   0  0  0  0  0  0  0  0  0  0  0  0
   -2.8065    0.9581   -0.8575 O   0  0  0  0  0  0  0  0  0  0  0  0
    2.5878   -1.0009    3.6805 H   0  0  0  0  0  0  0  0  0  0  0  0
    3.6563   -0.6602    2.2183 H   0  0  0  0  0  0  0  0  0  0  0  0
    2.5208   -2.0962    2.2475 H   0  0  0  0  0  0  0  0  0  0  0  0
    1.8388    0.7850    1.9648 H   0  0  0  0  0  0  0  0  0  0  0  0
   -1.0901    1.9150    0.1222 H   0  0  0  0  0  0  0  0  0  0  0  0
    0.4558    1.7465    1.0679 H   0  0  0  0  0  0  0  0  0  0  0  0
   -1.5234   -1.8487    0.0925 H   0  0  0  0  0  0  0  0  0  0  0  0
   -3.4412   -1.4097   -2.3052 H   0  0  0  0  0  0  0  0  0  0  0  0
   -4.6607   -0.6592   -1.2289 H   0  0  0  0  0  0  0  0  0  0  0  0
   -3.7635   -2.1015   -0.6413 H   0  0  0  0  0  0  0  0  0  0  0  0
  1  2  1  0
  1 11  1  0
  1 12  1  0
  1 13  1  0
  2  3  1  0
  2 14  1  0
  3  4  2  0
  3  5  1  0
  5  6  2  3
  5  7  1  0
  6 15  1  0
  6 16  1  0
  7  8  1  0
  7 17  1  0
  8  9  1  0
  8 10  2  0
  9 18  1  0
  9 19  1  0
  9 20  1  0
M  END

> <RosettaParamsInstructions>
M  ROOT 7
M  POLY_N_BB 7
M  POLY_CA_BB 5
M  POLY_C_BB 3
M  POLY_O_BB 4
M  POLY_IGNORE 1 10 9 14 11 12 13 18 19 20
M  POLY_UPPER 2
M  POLY_LOWER 8
M  POLY_CHG 0
M  POLY_PROPERTIES PROTEIN POLYMER ALPHA_AA ALIPHATIC
M  END

$$$$
DHA_new
     RDKit          3D

 20 19  0  0  0  0  0  0  0  0999 V2000
    2.7125   -1.0772    2.5162 C   0  0  0  0  0  0  0  0  0  0  0  0
    1.6887   -0.2440    1.8640 N   0  0  0  0  0  0  0  0  0  0  0  0
    0.5771   -0.8434    1.2736 C   0  0  0  0  0  0  0  0  0  0  0  0
    0.4350   -2.1040    1.2909 O   0  0  0  0  0  0  0  0  0  0  0  0
   -0.4767   -0.0551    0.6078 C   0  0  0  0  0  0  0  0  0  0  0  0
   -0.3678    1.2410    0.5687 C   0  0  0  0  0  0  0  0  0  0  0  0
   -1.5820   -0.7768    0.0306 N   0  0  0  0  0  0  0  0  0  0  0  0
   -2.6692   -0.2229   -0.6361 C   0  0  0  0  0  0  0  0  0  0  0  0
   -3.7328   -1.1426   -1.1739 C   0  0  0  0  0  0  0  0  0  0  0  0
   -2.8643    0.9936   -0.8433 O   0  0  0  0  0  0  0  0  0  0  0  0
    2.6622   -0.9556    3.6198 H   0  0  0  0  0  0  0  0  0  0  0  0
    2.5916   -2.1198    2.1899 H   0  0  0  0  0  0  0  0  0  0  0  0
    3.7022   -0.6905    2.1968 H   0  0  0  0  0  0  0  0  0  0  0  0
    1.8739    0.7730    1.8905 H   0  0  0  0  0  0  0  0  0  0  0  0
   -1.0978    1.8680    0.1010 H   0  0  0  0  0  0  0  0  0  0  0  0
    0.4730    1.7356    1.0120 H   0  0  0  0  0  0  0  0  0  0  0  0
   -1.5660   -1.8424    0.1232 H   0  0  0  0  0  0  0  0  0  0  0  0
   -3.8799   -1.9904   -0.4605 H   0  0  0  0  0  0  0  0  0  0  0  0
   -4.6978   -0.6220   -1.2973 H   0  0  0  0  0  0  0  0  0  0  0  0
   -3.3885   -1.5766   -2.1331 H   0  0  0  0  0  0  0  0  0  0  0  0
  1  2  1  0
  1 11  1  0
  1 12  1  0
  1 13  1  0
  2  3  1  0
  2 14  1  0
  3  4  2  0
  3  5  1  0
  5  6  2  3
  5  7  1  0
  6 15  1  0
  6 16  1  0
  7  8  1  0
  7 17  1  0
  8  9  1  0
  8 10  2  0
  9 18  1  0
  9 19  1  0
  9 20  1  0
M  END

> <RosettaParamsInstructions>
M  ROOT 7
M  POLY_N_BB 7
M  POLY_CA_BB 5
M  POLY_C_BB 3
M  POLY_O_BB 4
M  POLY_IGNORE 1 10 9 14 11 12 13 18 19 20
M  POLY_UPPER 2
M  POLY_LOWER 8
M  POLY_CHG 0
M  POLY_PROPERTIES PROTEIN POLYMER ALPHA_AA ALIPHATIC
M  END

$$$$
DHA_new
     RDKit          3D

 20 19  0  0  0  0  0  0  0  0999 V2000
    2.6784   -1.0957    2.5139 C   0  0  0  0  0  0  0  0  0  0  0  0
    1.7208   -0.2268    1.8180 N   0  0  0  0  0  0  0  0  0  0  0  0
    0.5715   -0.8111    1.2833 C   0  0  0  0  0  0  0  0  0  0  0  0
    0.4194   -2.0668    1.4300 O   0  0  0  0  0  0  0  0  0  0  0  0
   -0.4577   -0.0386    0.5652 C   0  0  0  0  0  0  0  0  0  0  0  0
   -0.2897    1.2423    0.4228 C   0  0  0  0  0  0  0  0  0  0  0  0
   -1.5880   -0.7399    0.0627 N   0  0  0  0  0  0  0  0  0  0  0  0
   -2.6722   -0.2305   -0.6375 C   0  0  0  0  0  0  0  0  0  0  0  0
   -3.7595   -1.1932   -1.0678 C   0  0  0  0  0  0  0  0  0  0  0  0
   -2.7745    0.9761   -0.9174 O   0  0  0  0  0  0  0  0  0  0  0  0
    2.6846   -2.0549    1.9834 H   0  0  0  0  0  0  0  0  0  0  0  0
    2.3587   -1.2499    3.5802 H   0  0  0  0  0  0  0  0  0  0  0  0
    3.6729   -0.6104    2.4779 H   0  0  0  0  0  0  0  0  0  0  0  0
    1.9244    0.7890    1.7444 H   0  0  0  0  0  0  0  0  0  0  0  0
    0.5785    1.7323    0.8178 H   0  0  0  0  0  0  0  0  0  0  0  0
   -0.9822    1.8941   -0.0847 H   0  0  0  0  0  0  0  0  0  0  0  0
   -1.5899   -1.7924    0.2559 H   0  0  0  0  0  0  0  0  0  0  0  0
   -3.7255   -2.0830   -0.4393 H   0  0  0  0  0  0  0  0  0  0  0  0
   -4.7465   -0.6671   -0.9216 H   0  0  0  0  0  0  0  0  0  0  0  0
   -3.6300   -1.4258   -2.1463 H   0  0  0  0  0  0  0  0  0  0  0  0
  1  2  1  0
  1 11  1  0
  1 12  1  0
  1 13  1  0
  2  3  1  0
  2 14  1  0
  3  4  2  0
  3  5  1  0
  5  6  2  3
  5  7  1  0
  6 15  1  0
  6 16  1  0
  7  8  1  0
  7 17  1  0
  8  9  1  0
  8 10  2  0
  9 18  1  0
  9 19  1  0
  9 20  1  0
M  END

> <RosettaParamsInstructions>
M  ROOT 7
M  POLY_N_BB 7
M  POLY_CA_BB 5
M  POLY_C_BB 3
M  POLY_O_BB 4
M  POLY_IGNORE 1 10 9 14 11 12 13 18 19 20
M  POLY_UPPER 2
M  POLY_LOWER 8
M  POLY_CHG 0
M  POLY_PROPERTIES PROTEIN POLYMER ALPHA_AA ALIPHATIC
M  END

$$$$
DHA_new
     RDKit          3D

 20 19  0  0  0  0  0  0  0  0999 V2000
    2.6880   -1.0750    2.5900 C   0  0  0  0  0  0  0  0  0  0  0  0
    1.7077   -0.2767    1.8413 N   0  0  0  0  0  0  0  0  0  0  0  0
    0.5468   -0.8623    1.3087 C   0  0  0  0  0  0  0  0  0  0  0  0
    0.3491   -2.1220    1.4863 O   0  0  0  0  0  0  0  0  0  0  0  0
   -0.4337   -0.0770    0.5629 C   0  0  0  0  0  0  0  0  0  0  0  0
   -0.2460    1.2152    0.3719 C   0  0  0  0  0  0  0  0  0  0  0  0
   -1.5628   -0.7706    0.0736 N   0  0  0  0  0  0  0  0  0  0  0  0
   -2.6375   -0.2426   -0.6670 C   0  0  0  0  0  0  0  0  0  0  0  0
   -3.7751   -1.1231   -1.1179 C   0  0  0  0  0  0  0  0  0  0  0  0
   -2.7617    0.9541   -1.0152 O   0  0  0  0  0  0  0  0  0  0  0  0
    2.4059   -2.1275    2.5322 H   0  0  0  0  0  0  0  0  0  0  0  0
    2.6272   -0.7361    3.6439 H   0  0  0  0  0  0  0  0  0  0  0  0
    3.6700   -0.8272    2.1724 H   0  0  0  0  0  0  0  0  0  0  0  0
    1.9033    0.7231    1.7225 H   0  0  0  0  0  0  0  0  0  0  0  0
   -0.9416    1.8560   -0.1765 H   0  0  0  0  0  0  0  0  0  0  0  0
    0.6247    1.7313    0.7536 H   0  0  0  0  0  0  0  0  0  0  0  0
   -1.6110   -1.8082    0.2859 H   0  0  0  0  0  0  0  0  0  0  0  0
   -4.7189   -0.5703   -1.1856 H   0  0  0  0  0  0  0  0  0  0  0  0
   -3.9045   -1.9142   -0.3481 H   0  0  0  0  0  0  0  0  0  0  0  0
   -3.5364   -1.5992   -2.0940 H   0  0  0  0  0  0  0  0  0  0  0  0
  1  2  1  0
  1 11  1  0
  1 12  1  0
  1 13  1  0
  2  3  1  0
  2 14  1  0
  3  4  2  0
  3  5  1  0
  5  6  2  3
  5  7  1  0
  6 15  1  0
  6 16  1  0
  7  8  1  0
  7 17  1  0
  8  9  1  0
  8 10  2  0
  9 18  1  0
  9 19  1  0
  9 20  1  0
M  END

> <RosettaParamsInstructions>
M  ROOT 7
M  POLY_N_BB 7
M  POLY_CA_BB 5
M  POLY_C_BB 3
M  POLY_O_BB 4
M  POLY_IGNORE 1 10 9 14 11 12 13 18 19 20
M  POLY_UPPER 2
M  POLY_LOWER 8
M  POLY_CHG 0
M  POLY_PROPERTIES PROTEIN POLYMER ALPHA_AA ALIPHATIC
M  END

$$$$
DHA_new
     RDKit          3D

 20 19  0  0  0  0  0  0  0  0999 V2000
    2.7296   -1.0645    2.5053 C   0  0  0  0  0  0  0  0  0  0  0  0
    1.6851   -0.2451    1.8550 N   0  0  0  0  0  0  0  0  0  0  0  0
    0.5647   -0.8364    1.2586 C   0  0  0  0  0  0  0  0  0  0  0  0
    0.4884   -2.1111    1.3029 O   0  0  0  0  0  0  0  0  0  0  0  0
   -0.4746   -0.0534    0.6137 C   0  0  0  0  0  0  0  0  0  0  0  0
   -0.3854    1.2460    0.5752 C   0  0  0  0  0  0  0  0  0  0  0  0
   -1.5592   -0.7510    0.0449 N   0  0  0  0  0  0  0  0  0  0  0  0
   -2.6741   -0.2406   -0.6242 C   0  0  0  0  0  0  0  0  0  0  0  0
   -3.7315   -1.1712   -1.1616 C   0  0  0  0  0  0  0  0  0  0  0  0
   -2.8302    0.9729   -0.7963 O   0  0  0  0  0  0  0  0  0  0  0  0
    2.7801   -2.0647    2.0002 H   0  0  0  0  0  0  0  0  0  0  0  0
    3.6901   -0.5482    2.3940 H   0  0  0  0  0  0  0  0  0  0  0  0
    2.4893   -1.2298    3.5654 H   0  0  0  0  0  0  0  0  0  0  0  0
    1.8218    0.7684    1.8630 H   0  0  0  0  0  0  0  0  0  0  0  0
    0.4682    1.7377    1.0267 H   0  0  0  0  0  0  0  0  0  0  0  0
   -1.1004    1.9302    0.1215 H   0  0  0  0  0  0  0  0  0  0  0  0
   -1.5338   -1.8157    0.1326 H   0  0  0  0  0  0  0  0  0  0  0  0
   -3.9663   -1.9778   -0.4665 H   0  0  0  0  0  0  0  0  0  0  0  0
   -4.6781   -0.6074   -1.3516 H   0  0  0  0  0  0  0  0  0  0  0  0
   -3.3899   -1.5905   -2.1181 H   0  0  0  0  0  0  0  0  0  0  0  0
  1  2  1  0
  1 11  1  0
  1 12  1  0
  1 13  1  0
  2  3  1  0
  2 14  1  0
  3  4  2  0
  3  5  1  0
  5  6  2  3
  5  7  1  0
  6 15  1  0
  6 16  1  0
  7  8  1  0
  7 17  1  0
  8  9  1  0
  8 10  2  0
  9 18  1  0
  9 19  1  0
  9 20  1  0
M  END

> <RosettaParamsInstructions>
M  ROOT 7
M  POLY_N_BB 7
M  POLY_CA_BB 5
M  POLY_C_BB 3
M  POLY_O_BB 4
M  POLY_IGNORE 1 10 9 14 11 12 13 18 19 20
M  POLY_UPPER 2
M  POLY_LOWER 8
M  POLY_CHG 0
M  POLY_PROPERTIES PROTEIN POLYMER ALPHA_AA ALIPHATIC
M  END

$$$$
DHA_new
     RDKit          3D

 20 19  0  0  0  0  0  0  0  0999 V2000
    2.6997   -1.0600    2.4928 C   0  0  0  0  0  0  0  0  0  0  0  0
    1.6716   -0.2199    1.8465 N   0  0  0  0  0  0  0  0  0  0  0  0
    0.5623   -0.8407    1.2554 C   0  0  0  0  0  0  0  0  0  0  0  0
    0.4640   -2.1216    1.2882 O   0  0  0  0  0  0  0  0  0  0  0  0
   -0.4825   -0.0552    0.6033 C   0  0  0  0  0  0  0  0  0  0  0  0
   -0.3850    1.2451    0.5685 C   0  0  0  0  0  0  0  0  0  0  0  0
   -1.5717   -0.7617    0.0294 N   0  0  0  0  0  0  0  0  0  0  0  0
   -2.6650   -0.2005   -0.6349 C   0  0  0  0  0  0  0  0  0  0  0  0
   -3.6987   -1.1927   -1.1572 C   0  0  0  0  0  0  0  0  0  0  0  0
   -2.8591    1.0116   -0.8302 O   0  0  0  0  0  0  0  0  0  0  0  0
    2.5529   -1.0001    3.5771 H   0  0  0  0  0  0  0  0  0  0  0  0
    2.5543   -2.1179    2.1812 H   0  0  0  0  0  0  0  0  0  0  0  0
    3.7002   -0.7253    2.1753 H   0  0  0  0  0  0  0  0  0  0  0  0
    1.8646    0.7807    1.8874 H   0  0  0  0  0  0  0  0  0  0  0  0
    0.4905    1.7164    1.0364 H   0  0  0  0  0  0  0  0  0  0  0  0
   -1.1272    1.8885    0.0993 H   0  0  0  0  0  0  0  0  0  0  0  0
   -1.5327   -1.8239    0.1257 H   0  0  0  0  0  0  0  0  0  0  0  0
   -4.4898   -1.2476   -0.3972 H   0  0  0  0  0  0  0  0  0  0  0  0
   -4.0935   -0.7452   -2.1116 H   0  0  0  0  0  0  0  0  0  0  0  0
   -3.2612   -2.1822   -1.2946 H   0  0  0  0  0  0  0  0  0  0  0  0
  1  2  1  0
  1 11  1  0
  1 12  1  0
  1 13  1  0
  2  3  1  0
  2 14  1  0
  3  4  2  0
  3  5  1  0
  5  6  2  3
  5  7  1  0
  6 15  1  0
  6 16  1  0
  7  8  1  0
  7 17  1  0
  8  9  1  0
  8 10  2  0
  9 18  1  0
  9 19  1  0
  9 20  1  0
M  END

> <RosettaParamsInstructions>
M  ROOT 7
M  POLY_N_BB 7
M  POLY_CA_BB 5
M  POLY_C_BB 3
M  POLY_O_BB 4
M  POLY_IGNORE 1 10 9 14 11 12 13 18 19 20
M  POLY_UPPER 2
M  POLY_LOWER 8
M  POLY_CHG 0
M  POLY_PROPERTIES PROTEIN POLYMER ALPHA_AA ALIPHATIC
M  END

$$$$
DHA_new
     RDKit          3D

 20 19  0  0  0  0  0  0  0  0999 V2000
    2.6650   -1.1067    2.5742 C   0  0  0  0  0  0  0  0  0  0  0  0
    1.7036   -0.2224    1.8761 N   0  0  0  0  0  0  0  0  0  0  0  0
    0.5705   -0.8088    1.2968 C   0  0  0  0  0  0  0  0  0  0  0  0
    0.4186   -2.0695    1.3960 O   0  0  0  0  0  0  0  0  0  0  0  0
   -0.4510   -0.0471    0.5816 C   0  0  0  0  0  0  0  0  0  0  0  0
   -0.3356    1.2519    0.4552 C   0  0  0  0  0  0  0  0  0  0  0  0
   -1.5419   -0.7385    0.0430 N   0  0  0  0  0  0  0  0  0  0  0  0
   -2.6317   -0.2583   -0.6704 C   0  0  0  0  0  0  0  0  0  0  0  0
   -3.7236   -1.1873   -1.1741 C   0  0  0  0  0  0  0  0  0  0  0  0
   -2.8288    0.9352   -0.9649 O   0  0  0  0  0  0  0  0  0  0  0  0
    3.6459   -0.5859    2.5569 H   0  0  0  0  0  0  0  0  0  0  0  0
    2.7053   -2.0759    2.0700 H   0  0  0  0  0  0  0  0  0  0  0  0
    2.3333   -1.2046    3.6273 H   0  0  0  0  0  0  0  0  0  0  0  0
    1.8945    0.8016    1.8352 H   0  0  0  0  0  0  0  0  0  0  0  0
   -1.0805    1.8146   -0.0674 H   0  0  0  0  0  0  0  0  0  0  0  0
    0.5281    1.7772    0.8850 H   0  0  0  0  0  0  0  0  0  0  0  0
   -1.5296   -1.7974    0.2086 H   0  0  0  0  0  0  0  0  0  0  0  0
   -3.6776   -1.2549   -2.2614 H   0  0  0  0  0  0  0  0  0  0  0  0
   -4.6815   -0.7239   -0.8837 H   0  0  0  0  0  0  0  0  0  0  0  0
   -3.5896   -2.1515   -0.6432 H   0  0  0  0  0  0  0  0  0  0  0  0
  1  2  1  0
  1 11  1  0
  1 12  1  0
  1 13  1  0
  2  3  1  0
  2 14  1  0
  3  4  2  0
  3  5  1  0
  5  6  2  3
  5  7  1  0
  6 15  1  0
  6 16  1  0
  7  8  1  0
  7 17  1  0
  8  9  1  0
  8 10  2  0
  9 18  1  0
  9 19  1  0
  9 20  1  0
M  END

> <RosettaParamsInstructions>
M  ROOT 7
M  POLY_N_BB 7
M  POLY_CA_BB 5
M  POLY_C_BB 3
M  POLY_O_BB 4
M  POLY_IGNORE 1 10 9 14 11 12 13 18 19 20
M  POLY_UPPER 2
M  POLY_LOWER 8
M  POLY_CHG 0
M  POLY_PROPERTIES PROTEIN POLYMER ALPHA_AA ALIPHATIC
M  END

$$$$
DHA_new
     RDKit          3D

 20 19  0  0  0  0  0  0  0  0999 V2000
    2.6587   -1.0472    2.5780 C   0  0  0  0  0  0  0  0  0  0  0  0
    1.6876   -0.2370    1.8675 N   0  0  0  0  0  0  0  0  0  0  0  0
    0.5618   -0.8457    1.3189 C   0  0  0  0  0  0  0  0  0  0  0  0
    0.3594   -2.1048    1.4247 O   0  0  0  0  0  0  0  0  0  0  0  0
   -0.4492   -0.0588    0.5894 C   0  0  0  0  0  0  0  0  0  0  0  0
   -0.3162    1.2362    0.4368 C   0  0  0  0  0  0  0  0  0  0  0  0
   -1.5786   -0.7229    0.0487 N   0  0  0  0  0  0  0  0  0  0  0  0
   -2.6533   -0.2131   -0.6688 C   0  0  0  0  0  0  0  0  0  0  0  0
   -3.7372   -1.1445   -1.1356 C   0  0  0  0  0  0  0  0  0  0  0  0
   -2.8099    0.9772   -0.9718 O   0  0  0  0  0  0  0  0  0  0  0  0
    2.1982   -1.9576    3.0320 H   0  0  0  0  0  0  0  0  0  0  0  0
    3.1718   -0.5062    3.3790 H   0  0  0  0  0  0  0  0  0  0  0  0
    3.4039   -1.3947    1.8614 H   0  0  0  0  0  0  0  0  0  0  0  0
    1.8606    0.7676    1.7898 H   0  0  0  0  0  0  0  0  0  0  0  0
    0.5391    1.7911    0.8370 H   0  0  0  0  0  0  0  0  0  0  0  0
   -1.0366    1.8145   -0.0862 H   0  0  0  0  0  0  0  0  0  0  0  0
   -1.6080   -1.7938    0.2218 H   0  0  0  0  0  0  0  0  0  0  0  0
   -3.2126   -2.0656   -1.4732 H   0  0  0  0  0  0  0  0  0  0  0  0
   -4.2677   -0.7431   -2.0175 H   0  0  0  0  0  0  0  0  0  0  0  0
   -4.3784   -1.4035   -0.2909 H   0  0  0  0  0  0  0  0  0  0  0  0
  1  2  1  0
  1 11  1  0
  1 12  1  0
  1 13  1  0
  2  3  1  0
  2 14  1  0
  3  4  2  0
  3  5  1  0
  5  6  2  3
  5  7  1  0
  6 15  1  0
  6 16  1  0
  7  8  1  0
  7 17  1  0
  8  9  1  0
  8 10  2  0
  9 18  1  0
  9 19  1  0
  9 20  1  0
M  END

> <RosettaParamsInstructions>
M  ROOT 7
M  POLY_N_BB 7
M  POLY_CA_BB 5
M  POLY_C_BB 3
M  POLY_O_BB 4
M  POLY_IGNORE 1 10 9 14 11 12 13 18 19 20
M  POLY_UPPER 2
M  POLY_LOWER 8
M  POLY_CHG 0
M  POLY_PROPERTIES PROTEIN POLYMER ALPHA_AA ALIPHATIC
M  END

$$$$
DHA_new
     RDKit          3D

 20 19  0  0  0  0  0  0  0  0999 V2000
    2.6753   -1.0643    2.5763 C   0  0  0  0  0  0  0  0  0  0  0  0
    1.6922   -0.2500    1.8167 N   0  0  0  0  0  0  0  0  0  0  0  0
    0.5333   -0.8548    1.3059 C   0  0  0  0  0  0  0  0  0  0  0  0
    0.3527   -2.0909    1.5068 O   0  0  0  0  0  0  0  0  0  0  0  0
   -0.4548   -0.0799    0.5533 C   0  0  0  0  0  0  0  0  0  0  0  0
   -0.2677    1.1909    0.3475 C   0  0  0  0  0  0  0  0  0  0  0  0
   -1.5768   -0.7797    0.0867 N   0  0  0  0  0  0  0  0  0  0  0  0
   -2.6225   -0.2063   -0.6492 C   0  0  0  0  0  0  0  0  0  0  0  0
   -3.7553   -1.1269   -1.0677 C   0  0  0  0  0  0  0  0  0  0  0  0
   -2.7451    0.9779   -1.0098 O   0  0  0  0  0  0  0  0  0  0  0  0
    2.4892   -2.1300    2.3040 H   0  0  0  0  0  0  0  0  0  0  0  0
    2.4662   -0.8590    3.6429 H   0  0  0  0  0  0  0  0  0  0  0  0
    3.6832   -0.7291    2.2939 H   0  0  0  0  0  0  0  0  0  0  0  0
    1.9506    0.7489    1.7184 H   0  0  0  0  0  0  0  0  0  0  0  0
   -0.9675    1.7753   -0.1942 H   0  0  0  0  0  0  0  0  0  0  0  0
    0.6392    1.6950    0.7397 H   0  0  0  0  0  0  0  0  0  0  0  0
   -1.6345   -1.8236    0.3103 H   0  0  0  0  0  0  0  0  0  0  0  0
   -4.7034   -0.5482   -1.0996 H   0  0  0  0  0  0  0  0  0  0  0  0
   -3.5477   -1.5271   -2.0814 H   0  0  0  0  0  0  0  0  0  0  0  0
   -3.8129   -1.9705   -0.3596 H   0  0  0  0  0  0  0  0  0  0  0  0
  1  2  1  0
  1 11  1  0
  1 12  1  0
  1 13  1  0
  2  3  1  0
  2 14  1  0
  3  4  2  0
  3  5  1  0
  5  6  2  3
  5  7  1  0
  6 15  1  0
  6 16  1  0
  7  8  1  0
  7 17  1  0
  8  9  1  0
  8 10  2  0
  9 18  1  0
  9 19  1  0
  9 20  1  0
M  END

> <RosettaParamsInstructions>
M  ROOT 7
M  POLY_N_BB 7
M  POLY_CA_BB 5
M  POLY_C_BB 3
M  POLY_O_BB 4
M  POLY_IGNORE 1 10 9 14 11 12 13 18 19 20
M  POLY_UPPER 2
M  POLY_LOWER 8
M  POLY_CHG 0
M  POLY_PROPERTIES PROTEIN POLYMER ALPHA_AA ALIPHATIC
M  END

$$$$
DHA_new
     RDKit          3D

 20 19  0  0  0  0  0  0  0  0999 V2000
    2.6546   -1.0608    2.5630 C   0  0  0  0  0  0  0  0  0  0  0  0
    1.6830   -0.2188    1.8549 N   0  0  0  0  0  0  0  0  0  0  0  0
    0.5443   -0.8354    1.2918 C   0  0  0  0  0  0  0  0  0  0  0  0
    0.3867   -2.0947    1.4092 O   0  0  0  0  0  0  0  0  0  0  0  0
   -0.4561   -0.0536    0.5769 C   0  0  0  0  0  0  0  0  0  0  0  0
   -0.2953    1.2337    0.4567 C   0  0  0  0  0  0  0  0  0  0  0  0
   -1.5675   -0.7297    0.0398 N   0  0  0  0  0  0  0  0  0  0  0  0
   -2.6549   -0.2197   -0.6806 C   0  0  0  0  0  0  0  0  0  0  0  0
   -3.7293   -1.1929   -1.1466 C   0  0  0  0  0  0  0  0  0  0  0  0
   -2.7823    0.9938   -0.9569 O   0  0  0  0  0  0  0  0  0  0  0  0
    3.1233   -0.5034    3.3852 H   0  0  0  0  0  0  0  0  0  0  0  0
    2.0962   -1.9156    3.0091 H   0  0  0  0  0  0  0  0  0  0  0  0
    3.3754   -1.4129    1.8185 H   0  0  0  0  0  0  0  0  0  0  0  0
    1.9201    0.7751    1.8281 H   0  0  0  0  0  0  0  0  0  0  0  0
   -1.0024    1.8848   -0.0650 H   0  0  0  0  0  0  0  0  0  0  0  0
    0.5782    1.7659    0.8788 H   0  0  0  0  0  0  0  0  0  0  0  0
   -1.5938   -1.7940    0.2015 H   0  0  0  0  0  0  0  0  0  0  0  0
   -3.2345   -1.9456   -1.7716 H   0  0  0  0  0  0  0  0  0  0  0  0
   -4.5019   -0.6607   -1.7008 H   0  0  0  0  0  0  0  0  0  0  0  0
   -4.1501   -1.6678   -0.2509 H   0  0  0  0  0  0  0  0  0  0  0  0
  1  2  1  0
  1 11  1  0
  1 12  1  0
  1 13  1  0
  2  3  1  0
  2 14  1  0
  3  4  2  0
  3  5  1  0
  5  6  2  3
  5  7  1  0
  6 15  1  0
  6 16  1  0
  7  8  1  0
  7 17  1  0
  8  9  1  0
  8 10  2  0
  9 18  1  0
  9 19  1  0
  9 20  1  0
M  END

> <RosettaParamsInstructions>
M  ROOT 7
M  POLY_N_BB 7
M  POLY_CA_BB 5
M  POLY_C_BB 3
M  POLY_O_BB 4
M  POLY_IGNORE 1 10 9 14 11 12 13 18 19 20
M  POLY_UPPER 2
M  POLY_LOWER 8
M  POLY_CHG 0
M  POLY_PROPERTIES PROTEIN POLYMER ALPHA_AA ALIPHATIC
M  END

$$$$
DHA_new
     RDKit          3D

 20 19  0  0  0  0  0  0  0  0999 V2000
    2.7244   -1.0664    2.4960 C   0  0  0  0  0  0  0  0  0  0  0  0
    1.7078   -0.2104    1.8551 N   0  0  0  0  0  0  0  0  0  0  0  0
    0.6060   -0.8248    1.2810 C   0  0  0  0  0  0  0  0  0  0  0  0
    0.4802   -2.0867    1.3086 O   0  0  0  0  0  0  0  0  0  0  0  0
   -0.4598   -0.0684    0.6202 C   0  0  0  0  0  0  0  0  0  0  0  0
   -0.3569    1.2350    0.5764 C   0  0  0  0  0  0  0  0  0  0  0  0
   -1.5651   -0.7790    0.0516 N   0  0  0  0  0  0  0  0  0  0  0  0
   -2.6733   -0.2511   -0.6154 C   0  0  0  0  0  0  0  0  0  0  0  0
   -3.7617   -1.1594   -1.1589 C   0  0  0  0  0  0  0  0  0  0  0  0
   -2.8881    0.9600   -0.8313 O   0  0  0  0  0  0  0  0  0  0  0  0
    3.6797   -0.5436    2.4906 H   0  0  0  0  0  0  0  0  0  0  0  0
    2.3315   -1.2587    3.5170 H   0  0  0  0  0  0  0  0  0  0  0  0
    2.7414   -2.0098    1.9519 H   0  0  0  0  0  0  0  0  0  0  0  0
    1.8733    0.8040    1.8696 H   0  0  0  0  0  0  0  0  0  0  0  0
   -1.1045    1.8375    0.1072 H   0  0  0  0  0  0  0  0  0  0  0  0
    0.4715    1.7494    1.0039 H   0  0  0  0  0  0  0  0  0  0  0  0
   -1.5179   -1.8435    0.1614 H   0  0  0  0  0  0  0  0  0  0  0  0
   -4.6613   -1.1052   -0.5437 H   0  0  0  0  0  0  0  0  0  0  0  0
   -3.9033   -0.8413   -2.2128 H   0  0  0  0  0  0  0  0  0  0  0  0
   -3.3305   -2.1898   -1.1877 H   0  0  0  0  0  0  0  0  0  0  0  0
  1  2  1  0
  1 11  1  0
  1 12  1  0
  1 13  1  0
  2  3  1  0
  2 14  1  0
  3  4  2  0
  3  5  1  0
  5  6  2  3
  5  7  1  0
  6 15  1  0
  6 16  1  0
  7  8  1  0
  7 17  1  0
  8  9  1  0
  8 10  2  0
  9 18  1  0
  9 19  1  0
  9 20  1  0
M  END

> <RosettaParamsInstructions>
M  ROOT 7
M  POLY_N_BB 7
M  POLY_CA_BB 5
M  POLY_C_BB 3
M  POLY_O_BB 4
M  POLY_IGNORE 1 10 9 14 11 12 13 18 19 20
M  POLY_UPPER 2
M  POLY_LOWER 8
M  POLY_CHG 0
M  POLY_PROPERTIES PROTEIN POLYMER ALPHA_AA ALIPHATIC
M  END

$$$$
DHA_new
     RDKit          3D

 20 19  0  0  0  0  0  0  0  0999 V2000
    2.6724   -1.0680    2.5767 C   0  0  0  0  0  0  0  0  0  0  0  0
    1.6852   -0.2486    1.8592 N   0  0  0  0  0  0  0  0  0  0  0  0
    0.5537   -0.8159    1.2958 C   0  0  0  0  0  0  0  0  0  0  0  0
    0.4070   -2.0778    1.4269 O   0  0  0  0  0  0  0  0  0  0  0  0
   -0.4485   -0.0537    0.5794 C   0  0  0  0  0  0  0  0  0  0  0  0
   -0.3139    1.2355    0.4365 C   0  0  0  0  0  0  0  0  0  0  0  0
   -1.5607   -0.7491    0.0492 N   0  0  0  0  0  0  0  0  0  0  0  0
   -2.6479   -0.2394   -0.6735 C   0  0  0  0  0  0  0  0  0  0  0  0
   -3.7352   -1.1535   -1.1516 C   0  0  0  0  0  0  0  0  0  0  0  0
   -2.7542    0.9629   -0.9421 O   0  0  0  0  0  0  0  0  0  0  0  0
    2.2092   -2.0417    2.8676 H   0  0  0  0  0  0  0  0  0  0  0  0
    3.5502   -1.2556    1.9442 H   0  0  0  0  0  0  0  0  0  0  0  0
    2.9398   -0.5135    3.4831 H   0  0  0  0  0  0  0  0  0  0  0  0
    1.8932    0.7534    1.8086 H   0  0  0  0  0  0  0  0  0  0  0  0
    0.5607    1.7213    0.8640 H   0  0  0  0  0  0  0  0  0  0  0  0
   -0.9874    1.9134   -0.0734 H   0  0  0  0  0  0  0  0  0  0  0  0
   -1.5966   -1.8116    0.2106 H   0  0  0  0  0  0  0  0  0  0  0  0
   -3.9683   -1.8920   -0.3764 H   0  0  0  0  0  0  0  0  0  0  0  0
   -3.4140   -1.7160   -2.0527 H   0  0  0  0  0  0  0  0  0  0  0  0
   -4.6510   -0.6023   -1.3913 H   0  0  0  0  0  0  0  0  0  0  0  0
  1  2  1  0
  1 11  1  0
  1 12  1  0
  1 13  1  0
  2  3  1  0
  2 14  1  0
  3  4  2  0
  3  5  1  0
  5  6  2  3
  5  7  1  0
  6 15  1  0
  6 16  1  0
  7  8  1  0
  7 17  1  0
  8  9  1  0
  8 10  2  0
  9 18  1  0
  9 19  1  0
  9 20  1  0
M  END

> <RosettaParamsInstructions>
M  ROOT 7
M  POLY_N_BB 7
M  POLY_CA_BB 5
M  POLY_C_BB 3
M  POLY_O_BB 4
M  POLY_IGNORE 1 10 9 14 11 12 13 18 19 20
M  POLY_UPPER 2
M  POLY_LOWER 8
M  POLY_CHG 0
M  POLY_PROPERTIES PROTEIN POLYMER ALPHA_AA ALIPHATIC
M  END

$$$$
DHA_new
     RDKit          3D

 20 19  0  0  0  0  0  0  0  0999 V2000
    2.7038   -1.0538    2.4982 C   0  0  0  0  0  0  0  0  0  0  0  0
    1.6725   -0.2210    1.8535 N   0  0  0  0  0  0  0  0  0  0  0  0
    0.5902   -0.8435    1.2759 C   0  0  0  0  0  0  0  0  0  0  0  0
    0.4745   -2.1084    1.2936 O   0  0  0  0  0  0  0  0  0  0  0  0
   -0.4867   -0.0720    0.6092 C   0  0  0  0  0  0  0  0  0  0  0  0
   -0.3951    1.2285    0.5755 C   0  0  0  0  0  0  0  0  0  0  0  0
   -1.5529   -0.7708    0.0459 N   0  0  0  0  0  0  0  0  0  0  0  0
   -2.6441   -0.2237   -0.6141 C   0  0  0  0  0  0  0  0  0  0  0  0
   -3.7323   -1.1490   -1.1749 C   0  0  0  0  0  0  0  0  0  0  0  0
   -2.8804    0.9816   -0.8289 O   0  0  0  0  0  0  0  0  0  0  0  0
    3.7094   -0.6192    2.3347 H   0  0  0  0  0  0  0  0  0  0  0  0
    2.7044   -2.0423    2.0098 H   0  0  0  0  0  0  0  0  0  0  0  0
    2.5223   -1.1443    3.5714 H   0  0  0  0  0  0  0  0  0  0  0  0
    1.8361    0.7819    1.8807 H   0  0  0  0  0  0  0  0  0  0  0  0
    0.4603    1.7404    1.0307 H   0  0  0  0  0  0  0  0  0  0  0  0
   -1.1550    1.8187    0.1020 H   0  0  0  0  0  0  0  0  0  0  0  0
   -1.5306   -1.8381    0.1294 H   0  0  0  0  0  0  0  0  0  0  0  0
   -4.5370   -1.2294   -0.4175 H   0  0  0  0  0  0  0  0  0  0  0  0
   -4.1026   -0.7415   -2.1374 H   0  0  0  0  0  0  0  0  0  0  0  0
   -3.2632   -2.1463   -1.2969 H   0  0  0  0  0  0  0  0  0  0  0  0
  1  2  1  0
  1 11  1  0
  1 12  1  0
  1 13  1  0
  2  3  1  0
  2 14  1  0
  3  4  2  0
  3  5  1  0
  5  6  2  3
  5  7  1  0
  6 15  1  0
  6 16  1  0
  7  8  1  0
  7 17  1  0
  8  9  1  0
  8 10  2  0
  9 18  1  0
  9 19  1  0
  9 20  1  0
M  END

> <RosettaParamsInstructions>
M  ROOT 7
M  POLY_N_BB 7
M  POLY_CA_BB 5
M  POLY_C_BB 3
M  POLY_O_BB 4
M  POLY_IGNORE 1 10 9 14 11 12 13 18 19 20
M  POLY_UPPER 2
M  POLY_LOWER 8
M  POLY_CHG 0
M  POLY_PROPERTIES PROTEIN POLYMER ALPHA_AA ALIPHATIC
M  END

$$$$
DHA_new
     RDKit          3D

 20 19  0  0  0  0  0  0  0  0999 V2000
    2.6313   -1.1028    2.5572 C   0  0  0  0  0  0  0  0  0  0  0  0
    1.6406   -0.2232    1.9078 N   0  0  0  0  0  0  0  0  0  0  0  0
    0.5502   -0.8285    1.2828 C   0  0  0  0  0  0  0  0  0  0  0  0
    0.4418   -2.0795    1.2886 O   0  0  0  0  0  0  0  0  0  0  0  0
   -0.4700   -0.0436    0.6211 C   0  0  0  0  0  0  0  0  0  0  0  0
   -0.3717    1.2491    0.6068 C   0  0  0  0  0  0  0  0  0  0  0  0
   -1.5429   -0.7375    0.0118 N   0  0  0  0  0  0  0  0  0  0  0  0
   -2.6453   -0.2177   -0.6845 C   0  0  0  0  0  0  0  0  0  0  0  0
   -3.6578   -1.2000   -1.2408 C   0  0  0  0  0  0  0  0  0  0  0  0
   -2.8336    1.0033   -0.8680 O   0  0  0  0  0  0  0  0  0  0  0  0
    2.9076   -0.6038    3.5094 H   0  0  0  0  0  0  0  0  0  0  0  0
    3.5180   -1.0736    1.8881 H   0  0  0  0  0  0  0  0  0  0  0  0
    2.2166   -2.0996    2.6882 H   0  0  0  0  0  0  0  0  0  0  0  0
    1.8381    0.7941    1.9688 H   0  0  0  0  0  0  0  0  0  0  0  0
    0.4505    1.8013    1.0726 H   0  0  0  0  0  0  0  0  0  0  0  0
   -1.1138    1.8568    0.1233 H   0  0  0  0  0  0  0  0  0  0  0  0
   -1.5490   -1.8252    0.0701 H   0  0  0  0  0  0  0  0  0  0  0  0
   -4.2816   -1.5578   -0.4014 H   0  0  0  0  0  0  0  0  0  0  0  0
   -3.0792   -2.0578   -1.6277 H   0  0  0  0  0  0  0  0  0  0  0  0
   -4.2565   -0.7063   -2.0331 H   0  0  0  0  0  0  0  0  0  0  0  0
  1  2  1  0
  1 11  1  0
  1 12  1  0
  1 13  1  0
  2  3  1  0
  2 14  1  0
  3  4  2  0
  3  5  1  0
  5  6  2  3
  5  7  1  0
  6 15  1  0
  6 16  1  0
  7  8  1  0
  7 17  1  0
  8  9  1  0
  8 10  2  0
  9 18  1  0
  9 19  1  0
  9 20  1  0
M  END

> <RosettaParamsInstructions>
M  ROOT 7
M  POLY_N_BB 7
M  POLY_CA_BB 5
M  POLY_C_BB 3
M  POLY_O_BB 4
M  POLY_IGNORE 1 10 9 14 11 12 13 18 19 20
M  POLY_UPPER 2
M  POLY_LOWER 8
M  POLY_CHG 0
M  POLY_PROPERTIES PROTEIN POLYMER ALPHA_AA ALIPHATIC
M  END

$$$$
DHA_new
     RDKit          3D

 20 19  0  0  0  0  0  0  0  0999 V2000
    2.6686   -1.0577    2.5725 C   0  0  0  0  0  0  0  0  0  0  0  0
    1.6802   -0.2369    1.8594 N   0  0  0  0  0  0  0  0  0  0  0  0
    0.5568   -0.8247    1.2987 C   0  0  0  0  0  0  0  0  0  0  0  0
    0.4108   -2.0879    1.4209 O   0  0  0  0  0  0  0  0  0  0  0  0
   -0.4719   -0.0511    0.5698 C   0  0  0  0  0  0  0  0  0  0  0  0
   -0.3364    1.2474    0.4357 C   0  0  0  0  0  0  0  0  0  0  0  0
   -1.5648   -0.7860    0.0511 N   0  0  0  0  0  0  0  0  0  0  0  0
   -2.6324   -0.2279   -0.6651 C   0  0  0  0  0  0  0  0  0  0  0  0
   -3.7254   -1.1527   -1.1526 C   0  0  0  0  0  0  0  0  0  0  0  0
   -2.7966    0.9758   -0.9590 O   0  0  0  0  0  0  0  0  0  0  0  0
    3.6949   -0.7106    2.3509 H   0  0  0  0  0  0  0  0  0  0  0  0
    2.5177   -0.9948    3.6714 H   0  0  0  0  0  0  0  0  0  0  0  0
    2.5663   -2.1250    2.2839 H   0  0  0  0  0  0  0  0  0  0  0  0
    1.8735    0.7717    1.8068 H   0  0  0  0  0  0  0  0  0  0  0  0
    0.5453    1.7545    0.8683 H   0  0  0  0  0  0  0  0  0  0  0  0
   -1.0425    1.8738   -0.0803 H   0  0  0  0  0  0  0  0  0  0  0  0
   -1.5885   -1.8504    0.2122 H   0  0  0  0  0  0  0  0  0  0  0  0
   -4.2158   -0.7487   -2.0502 H   0  0  0  0  0  0  0  0  0  0  0  0
   -4.4733   -1.3025   -0.3458 H   0  0  0  0  0  0  0  0  0  0  0  0
   -3.2732   -2.1186   -1.4077 H   0  0  0  0  0  0  0  0  0  0  0  0
  1  2  1  0
  1 11  1  0
  1 12  1  0
  1 13  1  0
  2  3  1  0
  2 14  1  0
  3  4  2  0
  3  5  1  0
  5  6  2  3
  5  7  1  0
  6 15  1  0
  6 16  1  0
  7  8  1  0
  7 17  1  0
  8  9  1  0
  8 10  2  0
  9 18  1  0
  9 19  1  0
  9 20  1  0
M  END

> <RosettaParamsInstructions>
M  ROOT 7
M  POLY_N_BB 7
M  POLY_CA_BB 5
M  POLY_C_BB 3
M  POLY_O_BB 4
M  POLY_IGNORE 1 10 9 14 11 12 13 18 19 20
M  POLY_UPPER 2
M  POLY_LOWER 8
M  POLY_CHG 0
M  POLY_PROPERTIES PROTEIN POLYMER ALPHA_AA ALIPHATIC
M  END

$$$$
DHA_new
     RDKit          3D

 20 19  0  0  0  0  0  0  0  0999 V2000
    2.6136   -1.0327    2.6615 C   0  0  0  0  0  0  0  0  0  0  0  0
    1.6761   -0.2045    1.8689 N   0  0  0  0  0  0  0  0  0  0  0  0
    0.5467   -0.8323    1.3586 C   0  0  0  0  0  0  0  0  0  0  0  0
    0.3349   -2.0598    1.5663 O   0  0  0  0  0  0  0  0  0  0  0  0
   -0.4473   -0.0929    0.5562 C   0  0  0  0  0  0  0  0  0  0  0  0
   -0.2425    1.1751    0.3331 C   0  0  0  0  0  0  0  0  0  0  0  0
   -1.5811   -0.8139    0.0688 N   0  0  0  0  0  0  0  0  0  0  0  0
   -2.5972   -0.2643   -0.6950 C   0  0  0  0  0  0  0  0  0  0  0  0
   -3.7403   -1.1421   -1.1452 C   0  0  0  0  0  0  0  0  0  0  0  0
   -2.6594    0.9261   -1.0580 O   0  0  0  0  0  0  0  0  0  0  0  0
    3.6272   -0.7426    2.3427 H   0  0  0  0  0  0  0  0  0  0  0  0
    2.3827   -0.8255    3.7093 H   0  0  0  0  0  0  0  0  0  0  0  0
    2.4808   -2.1113    2.3903 H   0  0  0  0  0  0  0  0  0  0  0  0
    1.9410    0.7838    1.7586 H   0  0  0  0  0  0  0  0  0  0  0  0
   -0.8841    1.8443   -0.2373 H   0  0  0  0  0  0  0  0  0  0  0  0
    0.6375    1.6925    0.7230 H   0  0  0  0  0  0  0  0  0  0  0  0
   -1.6690   -1.8500    0.2990 H   0  0  0  0  0  0  0  0  0  0  0  0
   -3.5578   -1.5413   -2.1637 H   0  0  0  0  0  0  0  0  0  0  0  0
   -3.8119   -2.0094   -0.4670 H   0  0  0  0  0  0  0  0  0  0  0  0
   -4.6562   -0.5513   -1.1291 H   0  0  0  0  0  0  0  0  0  0  0  0
  1  2  1  0
  1 11  1  0
  1 12  1  0
  1 13  1  0
  2  3  1  0
  2 14  1  0
  3  4  2  0
  3  5  1  0
  5  6  2  3
  5  7  1  0
  6 15  1  0
  6 16  1  0
  7  8  1  0
  7 17  1  0
  8  9  1  0
  8 10  2  0
  9 18  1  0
  9 19  1  0
  9 20  1  0
M  END

> <RosettaParamsInstructions>
M  ROOT 7
M  POLY_N_BB 7
M  POLY_CA_BB 5
M  POLY_C_BB 3
M  POLY_O_BB 4
M  POLY_IGNORE 1 10 9 14 11 12 13 18 19 20
M  POLY_UPPER 2
M  POLY_LOWER 8
M  POLY_CHG 0
M  POLY_PROPERTIES PROTEIN POLYMER ALPHA_AA ALIPHATIC
M  END

$$$$
DHA_new
     RDKit          3D

 20 19  0  0  0  0  0  0  0  0999 V2000
    2.7194   -1.1007    2.5212 C   0  0  0  0  0  0  0  0  0  0  0  0
    1.7159   -0.2318    1.8721 N   0  0  0  0  0  0  0  0  0  0  0  0
    0.5838   -0.8090    1.2704 C   0  0  0  0  0  0  0  0  0  0  0  0
    0.4803   -2.0718    1.3168 O   0  0  0  0  0  0  0  0  0  0  0  0
   -0.4834   -0.0634    0.5950 C   0  0  0  0  0  0  0  0  0  0  0  0
   -0.3844    1.2365    0.5428 C   0  0  0  0  0  0  0  0  0  0  0  0
   -1.5622   -0.7686    0.0347 N   0  0  0  0  0  0  0  0  0  0  0  0
   -2.6551   -0.2372   -0.6375 C   0  0  0  0  0  0  0  0  0  0  0  0
   -3.7297   -1.1680   -1.1765 C   0  0  0  0  0  0  0  0  0  0  0  0
   -2.8624    0.9750   -0.8582 O   0  0  0  0  0  0  0  0  0  0  0  0
    3.0941   -0.5792    3.4229 H   0  0  0  0  0  0  0  0  0  0  0  0
    2.2339   -2.0331    2.8217 H   0  0  0  0  0  0  0  0  0  0  0  0
    3.5292   -1.2349    1.7874 H   0  0  0  0  0  0  0  0  0  0  0  0
    1.8482    0.7896    1.8624 H   0  0  0  0  0  0  0  0  0  0  0  0
   -1.1330    1.8287    0.0633 H   0  0  0  0  0  0  0  0  0  0  0  0
    0.4626    1.7808    0.9835 H   0  0  0  0  0  0  0  0  0  0  0  0
   -1.5359   -1.8494    0.1404 H   0  0  0  0  0  0  0  0  0  0  0  0
   -3.7767   -2.0415   -0.4936 H   0  0  0  0  0  0  0  0  0  0  0  0
   -4.7131   -0.6624   -1.1258 H   0  0  0  0  0  0  0  0  0  0  0  0
   -3.4379   -1.4116   -2.2020 H   0  0  0  0  0  0  0  0  0  0  0  0
  1  2  1  0
  1 11  1  0
  1 12  1  0
  1 13  1  0
  2  3  1  0
  2 14  1  0
  3  4  2  0
  3  5  1  0
  5  6  2  3
  5  7  1  0
  6 15  1  0
  6 16  1  0
  7  8  1  0
  7 17  1  0
  8  9  1  0
  8 10  2  0
  9 18  1  0
  9 19  1  0
  9 20  1  0
M  END

> <RosettaParamsInstructions>
M  ROOT 7
M  POLY_N_BB 7
M  POLY_CA_BB 5
M  POLY_C_BB 3
M  POLY_O_BB 4
M  POLY_IGNORE 1 10 9 14 11 12 13 18 19 20
M  POLY_UPPER 2
M  POLY_LOWER 8
M  POLY_CHG 0
M  POLY_PROPERTIES PROTEIN POLYMER ALPHA_AA ALIPHATIC
M  END

$$$$
DHA_new
     RDKit          3D

 20 19  0  0  0  0  0  0  0  0999 V2000
    2.6855   -1.0743    2.5514 C   0  0  0  0  0  0  0  0  0  0  0  0
    1.6978   -0.2349    1.8642 N   0  0  0  0  0  0  0  0  0  0  0  0
    0.5674   -0.8060    1.2831 C   0  0  0  0  0  0  0  0  0  0  0  0
    0.4346   -2.0673    1.3750 O   0  0  0  0  0  0  0  0  0  0  0  0
   -0.4675   -0.0453    0.5790 C   0  0  0  0  0  0  0  0  0  0  0  0
   -0.3526    1.2456    0.4727 C   0  0  0  0  0  0  0  0  0  0  0  0
   -1.5492   -0.7571    0.0451 N   0  0  0  0  0  0  0  0  0  0  0  0
   -2.6307   -0.2260   -0.6552 C   0  0  0  0  0  0  0  0  0  0  0  0
   -3.7101   -1.1725   -1.1563 C   0  0  0  0  0  0  0  0  0  0  0  0
   -2.8071    0.9674   -0.9179 O   0  0  0  0  0  0  0  0  0  0  0  0
    3.6359   -0.5513    2.6635 H   0  0  0  0  0  0  0  0  0  0  0  0
    2.2246   -1.3206    3.5349 H   0  0  0  0  0  0  0  0  0  0  0  0
    2.8250   -2.0069    1.9697 H   0  0  0  0  0  0  0  0  0  0  0  0
    1.8954    0.7841    1.8427 H   0  0  0  0  0  0  0  0  0  0  0  0
    0.5176    1.7619    0.9097 H   0  0  0  0  0  0  0  0  0  0  0  0
   -1.0690    1.8741   -0.0285 H   0  0  0  0  0  0  0  0  0  0  0  0
   -1.5535   -1.8192    0.1851 H   0  0  0  0  0  0  0  0  0  0  0  0
   -4.7120   -0.7051   -1.0019 H   0  0  0  0  0  0  0  0  0  0  0  0
   -3.5370   -1.3928   -2.2171 H   0  0  0  0  0  0  0  0  0  0  0  0
   -3.7015   -2.1063   -0.5586 H   0  0  0  0  0  0  0  0  0  0  0  0
  1  2  1  0
  1 11  1  0
  1 12  1  0
  1 13  1  0
  2  3  1  0
  2 14  1  0
  3  4  2  0
  3  5  1  0
  5  6  2  3
  5  7  1  0
  6 15  1  0
  6 16  1  0
  7  8  1  0
  7 17  1  0
  8  9  1  0
  8 10  2  0
  9 18  1  0
  9 19  1  0
  9 20  1  0
M  END

> <RosettaParamsInstructions>
M  ROOT 7
M  POLY_N_BB 7
M  POLY_CA_BB 5
M  POLY_C_BB 3
M  POLY_O_BB 4
M  POLY_IGNORE 1 10 9 14 11 12 13 18 19 20
M  POLY_UPPER 2
M  POLY_LOWER 8
M  POLY_CHG 0
M  POLY_PROPERTIES PROTEIN POLYMER ALPHA_AA ALIPHATIC
M  END

$$$$
DHA_new
     RDKit          3D

 20 19  0  0  0  0  0  0  0  0999 V2000
    2.6658   -1.0833    2.5704 C   0  0  0  0  0  0  0  0  0  0  0  0
    1.7149   -0.2199    1.8731 N   0  0  0  0  0  0  0  0  0  0  0  0
    0.5736   -0.8016    1.3075 C   0  0  0  0  0  0  0  0  0  0  0  0
    0.4268   -2.0648    1.4340 O   0  0  0  0  0  0  0  0  0  0  0  0
   -0.4653   -0.0387    0.5760 C   0  0  0  0  0  0  0  0  0  0  0  0
   -0.3448    1.2471    0.4304 C   0  0  0  0  0  0  0  0  0  0  0  0
   -1.5730   -0.7575    0.0531 N   0  0  0  0  0  0  0  0  0  0  0  0
   -2.6546   -0.2306   -0.6635 C   0  0  0  0  0  0  0  0  0  0  0  0
   -3.7249   -1.1883   -1.1248 C   0  0  0  0  0  0  0  0  0  0  0  0
   -2.7838    0.9817   -0.9418 O   0  0  0  0  0  0  0  0  0  0  0  0
    3.3316   -0.4619    3.1974 H   0  0  0  0  0  0  0  0  0  0  0  0
    2.1181   -1.7675    3.2469 H   0  0  0  0  0  0  0  0  0  0  0  0
    3.2124   -1.6872    1.8222 H   0  0  0  0  0  0  0  0  0  0  0  0
    1.8998    0.8060    1.8086 H   0  0  0  0  0  0  0  0  0  0  0  0
   -1.0236    1.8915   -0.0720 H   0  0  0  0  0  0  0  0  0  0  0  0
    0.5243    1.7640    0.8487 H   0  0  0  0  0  0  0  0  0  0  0  0
   -1.5968   -1.8221    0.2178 H   0  0  0  0  0  0  0  0  0  0  0  0
   -3.2549   -2.1707   -1.3648 H   0  0  0  0  0  0  0  0  0  0  0  0
   -4.1084   -0.7899   -2.0748 H   0  0  0  0  0  0  0  0  0  0  0  0
   -4.5437   -1.2587   -0.4034 H   0  0  0  0  0  0  0  0  0  0  0  0
  1  2  1  0
  1 11  1  0
  1 12  1  0
  1 13  1  0
  2  3  1  0
  2 14  1  0
  3  4  2  0
  3  5  1  0
  5  6  2  3
  5  7  1  0
  6 15  1  0
  6 16  1  0
  7  8  1  0
  7 17  1  0
  8  9  1  0
  8 10  2  0
  9 18  1  0
  9 19  1  0
  9 20  1  0
M  END

> <RosettaParamsInstructions>
M  ROOT 7
M  POLY_N_BB 7
M  POLY_CA_BB 5
M  POLY_C_BB 3
M  POLY_O_BB 4
M  POLY_IGNORE 1 10 9 14 11 12 13 18 19 20
M  POLY_UPPER 2
M  POLY_LOWER 8
M  POLY_CHG 0
M  POLY_PROPERTIES PROTEIN POLYMER ALPHA_AA ALIPHATIC
M  END

$$$$
DHA_new
     RDKit          3D

 20 19  0  0  0  0  0  0  0  0999 V2000
    2.7303   -1.0654    2.4842 C   0  0  0  0  0  0  0  0  0  0  0  0
    1.7128   -0.2541    1.8042 N   0  0  0  0  0  0  0  0  0  0  0  0
    0.5783   -0.8661    1.2703 C   0  0  0  0  0  0  0  0  0  0  0  0
    0.3923   -2.1267    1.3543 O   0  0  0  0  0  0  0  0  0  0  0  0
   -0.4506   -0.0753    0.5870 C   0  0  0  0  0  0  0  0  0  0  0  0
   -0.3030    1.2305    0.4752 C   0  0  0  0  0  0  0  0  0  0  0  0
   -1.5738   -0.7673    0.0712 N   0  0  0  0  0  0  0  0  0  0  0  0
   -2.6597   -0.2139   -0.6082 C   0  0  0  0  0  0  0  0  0  0  0  0
   -3.7693   -1.1366   -1.0825 C   0  0  0  0  0  0  0  0  0  0  0  0
   -2.8607    0.9877   -0.8966 O   0  0  0  0  0  0  0  0  0  0  0  0
    3.6118   -1.2057    1.8571 H   0  0  0  0  0  0  0  0  0  0  0  0
    2.2542   -2.0391    2.7764 H   0  0  0  0  0  0  0  0  0  0  0  0
    2.9483   -0.5322    3.4371 H   0  0  0  0  0  0  0  0  0  0  0  0
    1.8944    0.7468    1.7562 H   0  0  0  0  0  0  0  0  0  0  0  0
    0.5481    1.7548    0.8661 H   0  0  0  0  0  0  0  0  0  0  0  0
   -1.0366    1.8673   -0.0227 H   0  0  0  0  0  0  0  0  0  0  0  0
   -1.5835   -1.8216    0.2217 H   0  0  0  0  0  0  0  0  0  0  0  0
   -4.5599   -1.1518   -0.3071 H   0  0  0  0  0  0  0  0  0  0  0  0
   -4.1342   -0.8229   -2.0786 H   0  0  0  0  0  0  0  0  0  0  0  0
   -3.3459   -2.1605   -1.2244 H   0  0  0  0  0  0  0  0  0  0  0  0
  1  2  1  0
  1 11  1  0
  1 12  1  0
  1 13  1  0
  2  3  1  0
  2 14  1  0
  3  4  2  0
  3  5  1  0
  5  6  2  3
  5  7  1  0
  6 15  1  0
  6 16  1  0
  7  8  1  0
  7 17  1  0
  8  9  1  0
  8 10  2  0
  9 18  1  0
  9 19  1  0
  9 20  1  0
M  END

> <RosettaParamsInstructions>
M  ROOT 7
M  POLY_N_BB 7
M  POLY_CA_BB 5
M  POLY_C_BB 3
M  POLY_O_BB 4
M  POLY_IGNORE 1 10 9 14 11 12 13 18 19 20
M  POLY_UPPER 2
M  POLY_LOWER 8
M  POLY_CHG 0
M  POLY_PROPERTIES PROTEIN POLYMER ALPHA_AA ALIPHATIC
M  END

$$$$
DHA_new
     RDKit          3D

 20 19  0  0  0  0  0  0  0  0999 V2000
    2.7127   -1.0870    2.5424 C   0  0  0  0  0  0  0  0  0  0  0  0
    1.7271   -0.2368    1.8559 N   0  0  0  0  0  0  0  0  0  0  0  0
    0.5737   -0.7986    1.2773 C   0  0  0  0  0  0  0  0  0  0  0  0
    0.4447   -2.0698    1.3873 O   0  0  0  0  0  0  0  0  0  0  0  0
   -0.4705   -0.0495    0.5719 C   0  0  0  0  0  0  0  0  0  0  0  0
   -0.3519    1.2458    0.4525 C   0  0  0  0  0  0  0  0  0  0  0  0
   -1.5742   -0.7421    0.0407 N   0  0  0  0  0  0  0  0  0  0  0  0
   -2.6779   -0.2548   -0.6609 C   0  0  0  0  0  0  0  0  0  0  0  0
   -3.7740   -1.1579   -1.1573 C   0  0  0  0  0  0  0  0  0  0  0  0
   -2.8355    0.9520   -0.9254 O   0  0  0  0  0  0  0  0  0  0  0  0
    2.1723   -1.9979    2.8413 H   0  0  0  0  0  0  0  0  0  0  0  0
    3.0505   -0.6003    3.4857 H   0  0  0  0  0  0  0  0  0  0  0  0
    3.6029   -1.2577    1.9273 H   0  0  0  0  0  0  0  0  0  0  0  0
    1.9698    0.7690    1.8493 H   0  0  0  0  0  0  0  0  0  0  0  0
    0.5401    1.7175    0.8945 H   0  0  0  0  0  0  0  0  0  0  0  0
   -1.0453    1.8986   -0.0384 H   0  0  0  0  0  0  0  0  0  0  0  0
   -1.5747   -1.8027    0.1937 H   0  0  0  0  0  0  0  0  0  0  0  0
   -3.4882   -2.1879   -0.8869 H   0  0  0  0  0  0  0  0  0  0  0  0
   -4.7297   -0.9317   -0.6534 H   0  0  0  0  0  0  0  0  0  0  0  0
   -3.8783   -1.0605   -2.2567 H   0  0  0  0  0  0  0  0  0  0  0  0
  1  2  1  0
  1 11  1  0
  1 12  1  0
  1 13  1  0
  2  3  1  0
  2 14  1  0
  3  4  2  0
  3  5  1  0
  5  6  2  3
  5  7  1  0
  6 15  1  0
  6 16  1  0
  7  8  1  0
  7 17  1  0
  8  9  1  0
  8 10  2  0
  9 18  1  0
  9 19  1  0
  9 20  1  0
M  END

> <RosettaParamsInstructions>
M  ROOT 7
M  POLY_N_BB 7
M  POLY_CA_BB 5
M  POLY_C_BB 3
M  POLY_O_BB 4
M  POLY_IGNORE 1 10 9 14 11 12 13 18 19 20
M  POLY_UPPER 2
M  POLY_LOWER 8
M  POLY_CHG 0
M  POLY_PROPERTIES PROTEIN POLYMER ALPHA_AA ALIPHATIC
M  END

$$$$
DHA_new
     RDKit          3D

 20 19  0  0  0  0  0  0  0  0999 V2000
    2.6974   -1.0807    2.5617 C   0  0  0  0  0  0  0  0  0  0  0  0
    1.6924   -0.2458    1.8559 N   0  0  0  0  0  0  0  0  0  0  0  0
    0.5505   -0.8348    1.2901 C   0  0  0  0  0  0  0  0  0  0  0  0
    0.4112   -2.0887    1.4026 O   0  0  0  0  0  0  0  0  0  0  0  0
   -0.4617   -0.0636    0.5900 C   0  0  0  0  0  0  0  0  0  0  0  0
   -0.3516    1.2207    0.4560 C   0  0  0  0  0  0  0  0  0  0  0  0
   -1.5606   -0.7713    0.0671 N   0  0  0  0  0  0  0  0  0  0  0  0
   -2.6409   -0.2218   -0.6382 C   0  0  0  0  0  0  0  0  0  0  0  0
   -3.7302   -1.1552   -1.1207 C   0  0  0  0  0  0  0  0  0  0  0  0
   -2.8375    0.9669   -0.9337 O   0  0  0  0  0  0  0  0  0  0  0  0
    3.6733   -0.5582    2.5733 H   0  0  0  0  0  0  0  0  0  0  0  0
    2.2774   -1.1867    3.5920 H   0  0  0  0  0  0  0  0  0  0  0  0
    2.7804   -2.0398    2.0294 H   0  0  0  0  0  0  0  0  0  0  0  0
    1.8784    0.7680    1.8072 H   0  0  0  0  0  0  0  0  0  0  0  0
    0.5285    1.7333    0.8831 H   0  0  0  0  0  0  0  0  0  0  0  0
   -1.0810    1.8442   -0.0589 H   0  0  0  0  0  0  0  0  0  0  0  0
   -1.5624   -1.8232    0.2276 H   0  0  0  0  0  0  0  0  0  0  0  0
   -3.3128   -2.1797   -1.1474 H   0  0  0  0  0  0  0  0  0  0  0  0
   -4.6417   -1.0551   -0.5145 H   0  0  0  0  0  0  0  0  0  0  0  0
   -3.9156   -0.8807   -2.1815 H   0  0  0  0  0  0  0  0  0  0  0  0
  1  2  1  0
  1 11  1  0
  1 12  1  0
  1 13  1  0
  2  3  1  0
  2 14  1  0
  3  4  2  0
  3  5  1  0
  5  6  2  3
  5  7  1  0
  6 15  1  0
  6 16  1  0
  7  8  1  0
  7 17  1  0
  8  9  1  0
  8 10  2  0
  9 18  1  0
  9 19  1  0
  9 20  1  0
M  END

> <RosettaParamsInstructions>
M  ROOT 7
M  POLY_N_BB 7
M  POLY_CA_BB 5
M  POLY_C_BB 3
M  POLY_O_BB 4
M  POLY_IGNORE 1 10 9 14 11 12 13 18 19 20
M  POLY_UPPER 2
M  POLY_LOWER 8
M  POLY_CHG 0
M  POLY_PROPERTIES PROTEIN POLYMER ALPHA_AA ALIPHATIC
M  END

$$$$
DHA_new
     RDKit          3D

 20 19  0  0  0  0  0  0  0  0999 V2000
    2.7285   -1.0695    2.4890 C   0  0  0  0  0  0  0  0  0  0  0  0
    1.6696   -0.2494    1.8861 N   0  0  0  0  0  0  0  0  0  0  0  0
    0.5775   -0.8507    1.2482 C   0  0  0  0  0  0  0  0  0  0  0  0
    0.5168   -2.1201    1.1990 O   0  0  0  0  0  0  0  0  0  0  0  0
   -0.4743   -0.0279    0.6495 C   0  0  0  0  0  0  0  0  0  0  0  0
   -0.4250    1.2874    0.6926 C   0  0  0  0  0  0  0  0  0  0  0  0
   -1.5346   -0.7431    0.0288 N   0  0  0  0  0  0  0  0  0  0  0  0
   -2.6621   -0.2473   -0.6172 C   0  0  0  0  0  0  0  0  0  0  0  0
   -3.6850   -1.1769   -1.2187 C   0  0  0  0  0  0  0  0  0  0  0  0
   -2.9385    0.9652   -0.7634 O   0  0  0  0  0  0  0  0  0  0  0  0
    3.4316   -0.4441    3.0643 H   0  0  0  0  0  0  0  0  0  0  0  0
    3.2206   -1.5956    1.6437 H   0  0  0  0  0  0  0  0  0  0  0  0
    2.2147   -1.8021    3.1333 H   0  0  0  0  0  0  0  0  0  0  0  0
    1.7613    0.7680    1.9503 H   0  0  0  0  0  0  0  0  0  0  0  0
    0.4010    1.8165    1.1759 H   0  0  0  0  0  0  0  0  0  0  0  0
   -1.2246    1.8960    0.2372 H   0  0  0  0  0  0  0  0  0  0  0  0
   -1.4629   -1.8091    0.0584 H   0  0  0  0  0  0  0  0  0  0  0  0
   -4.5043   -1.3768   -0.5258 H   0  0  0  0  0  0  0  0  0  0  0  0
   -4.0735   -0.7532   -2.1555 H   0  0  0  0  0  0  0  0  0  0  0  0
   -3.1433   -2.1195   -1.4348 H   0  0  0  0  0  0  0  0  0  0  0  0
  1  2  1  0
  1 11  1  0
  1 12  1  0
  1 13  1  0
  2  3  1  0
  2 14  1  0
  3  4  2  0
  3  5  1  0
  5  6  2  3
  5  7  1  0
  6 15  1  0
  6 16  1  0
  7  8  1  0
  7 17  1  0
  8  9  1  0
  8 10  2  0
  9 18  1  0
  9 19  1  0
  9 20  1  0
M  END

> <RosettaParamsInstructions>
M  ROOT 7
M  POLY_N_BB 7
M  POLY_CA_BB 5
M  POLY_C_BB 3
M  POLY_O_BB 4
M  POLY_IGNORE 1 10 9 14 11 12 13 18 19 20
M  POLY_UPPER 2
M  POLY_LOWER 8
M  POLY_CHG 0
M  POLY_PROPERTIES PROTEIN POLYMER ALPHA_AA ALIPHATIC
M  END

$$$$
DHA_new
     RDKit          3D

 20 19  0  0  0  0  0  0  0  0999 V2000
    2.6276   -1.0334    2.6765 C   0  0  0  0  0  0  0  0  0  0  0  0
    1.6778   -0.2312    1.8584 N   0  0  0  0  0  0  0  0  0  0  0  0
    0.5240   -0.8183    1.3504 C   0  0  0  0  0  0  0  0  0  0  0  0
    0.3165   -2.0391    1.6062 O   0  0  0  0  0  0  0  0  0  0  0  0
   -0.4530   -0.0859    0.5378 C   0  0  0  0  0  0  0  0  0  0  0  0
   -0.2206    1.1765    0.2840 C   0  0  0  0  0  0  0  0  0  0  0  0
   -1.5814   -0.8110    0.0880 N   0  0  0  0  0  0  0  0  0  0  0  0
   -2.5991   -0.2684   -0.6901 C   0  0  0  0  0  0  0  0  0  0  0  0
   -3.7627   -1.1409   -1.1151 C   0  0  0  0  0  0  0  0  0  0  0  0
   -2.6743    0.9036   -1.0999 O   0  0  0  0  0  0  0  0  0  0  0  0
    3.6389   -0.6959    2.3669 H   0  0  0  0  0  0  0  0  0  0  0  0
    2.4419   -2.0764    2.4151 H   0  0  0  0  0  0  0  0  0  0  0  0
    2.4399   -0.8845    3.7422 H   0  0  0  0  0  0  0  0  0  0  0  0
    1.9348    0.7634    1.7031 H   0  0  0  0  0  0  0  0  0  0  0  0
    0.6647    1.6794    0.6573 H   0  0  0  0  0  0  0  0  0  0  0  0
   -0.8852    1.7613   -0.2958 H   0  0  0  0  0  0  0  0  0  0  0  0
   -1.6638   -1.8432    0.3599 H   0  0  0  0  0  0  0  0  0  0  0  0
   -4.0300   -0.8909   -2.1683 H   0  0  0  0  0  0  0  0  0  0  0  0
   -3.4149   -2.1823   -1.1040 H   0  0  0  0  0  0  0  0  0  0  0  0
   -4.5876   -0.9351   -0.4316 H   0  0  0  0  0  0  0  0  0  0  0  0
  1  2  1  0
  1 11  1  0
  1 12  1  0
  1 13  1  0
  2  3  1  0
  2 14  1  0
  3  4  2  0
  3  5  1  0
  5  6  2  3
  5  7  1  0
  6 15  1  0
  6 16  1  0
  7  8  1  0
  7 17  1  0
  8  9  1  0
  8 10  2  0
  9 18  1  0
  9 19  1  0
  9 20  1  0
M  END

> <RosettaParamsInstructions>
M  ROOT 7
M  POLY_N_BB 7
M  POLY_CA_BB 5
M  POLY_C_BB 3
M  POLY_O_BB 4
M  POLY_IGNORE 1 10 9 14 11 12 13 18 19 20
M  POLY_UPPER 2
M  POLY_LOWER 8
M  POLY_CHG 0
M  POLY_PROPERTIES PROTEIN POLYMER ALPHA_AA ALIPHATIC
M  END

$$$$
DHA_new
     RDKit          3D

 20 19  0  0  0  0  0  0  0  0999 V2000
    2.6694   -1.0685    2.5713 C   0  0  0  0  0  0  0  0  0  0  0  0
    1.7014   -0.2066    1.8712 N   0  0  0  0  0  0  0  0  0  0  0  0
    0.5769   -0.8311    1.3143 C   0  0  0  0  0  0  0  0  0  0  0  0
    0.3951   -2.0942    1.4075 O   0  0  0  0  0  0  0  0  0  0  0  0
   -0.4657   -0.0713    0.5869 C   0  0  0  0  0  0  0  0  0  0  0  0
   -0.3242    1.2326    0.4638 C   0  0  0  0  0  0  0  0  0  0  0  0
   -1.5780   -0.7690    0.0486 N   0  0  0  0  0  0  0  0  0  0  0  0
   -2.6439   -0.2465   -0.6551 C   0  0  0  0  0  0  0  0  0  0  0  0
   -3.7458   -1.1557   -1.1540 C   0  0  0  0  0  0  0  0  0  0  0  0
   -2.7945    0.9499   -0.9314 O   0  0  0  0  0  0  0  0  0  0  0  0
    3.2268   -0.4536    3.3230 H   0  0  0  0  0  0  0  0  0  0  0  0
    2.1160   -1.9044    3.0238 H   0  0  0  0  0  0  0  0  0  0  0  0
    3.3860   -1.4727    1.8487 H   0  0  0  0  0  0  0  0  0  0  0  0
    1.8837    0.8135    1.8165 H   0  0  0  0  0  0  0  0  0  0  0  0
   -1.0374    1.8775   -0.0536 H   0  0  0  0  0  0  0  0  0  0  0  0
    0.5377    1.7288    0.8878 H   0  0  0  0  0  0  0  0  0  0  0  0
   -1.5804   -1.8245    0.2136 H   0  0  0  0  0  0  0  0  0  0  0  0
   -4.7197   -0.6160   -1.1702 H   0  0  0  0  0  0  0  0  0  0  0  0
   -3.4593   -1.5014   -2.1719 H   0  0  0  0  0  0  0  0  0  0  0  0
   -3.7506   -2.0391   -0.4998 H   0  0  0  0  0  0  0  0  0  0  0  0
  1  2  1  0
  1 11  1  0
  1 12  1  0
  1 13  1  0
  2  3  1  0
  2 14  1  0
  3  4  2  0
  3  5  1  0
  5  6  2  3
  5  7  1  0
  6 15  1  0
  6 16  1  0
  7  8  1  0
  7 17  1  0
  8  9  1  0
  8 10  2  0
  9 18  1  0
  9 19  1  0
  9 20  1  0
M  END

> <RosettaParamsInstructions>
M  ROOT 7
M  POLY_N_BB 7
M  POLY_CA_BB 5
M  POLY_C_BB 3
M  POLY_O_BB 4
M  POLY_IGNORE 1 10 9 14 11 12 13 18 19 20
M  POLY_UPPER 2
M  POLY_LOWER 8
M  POLY_CHG 0
M  POLY_PROPERTIES PROTEIN POLYMER ALPHA_AA ALIPHATIC
M  END

$$$$
DHA_new
     RDKit          3D

 20 19  0  0  0  0  0  0  0  0999 V2000
    2.6461   -1.0770    2.5942 C   0  0  0  0  0  0  0  0  0  0  0  0
    1.7075   -0.2455    1.8394 N   0  0  0  0  0  0  0  0  0  0  0  0
    0.5421   -0.8107    1.3128 C   0  0  0  0  0  0  0  0  0  0  0  0
    0.3199   -2.0334    1.4989 O   0  0  0  0  0  0  0  0  0  0  0  0
   -0.4298   -0.0371    0.5536 C   0  0  0  0  0  0  0  0  0  0  0  0
   -0.2434    1.2472    0.3309 C   0  0  0  0  0  0  0  0  0  0  0  0
   -1.5754   -0.7295    0.0711 N   0  0  0  0  0  0  0  0  0  0  0  0
   -2.6400   -0.2108   -0.6760 C   0  0  0  0  0  0  0  0  0  0  0  0
   -3.7557   -1.1519   -1.0773 C   0  0  0  0  0  0  0  0  0  0  0  0
   -2.7767    0.9486   -1.0529 O   0  0  0  0  0  0  0  0  0  0  0  0
    3.4537   -1.3854    1.9147 H   0  0  0  0  0  0  0  0  0  0  0  0
    2.1228   -1.9970    2.9117 H   0  0  0  0  0  0  0  0  0  0  0  0
    3.0701   -0.5495    3.4547 H   0  0  0  0  0  0  0  0  0  0  0  0
    1.9244    0.7477    1.7092 H   0  0  0  0  0  0  0  0  0  0  0  0
   -0.9584    1.8214   -0.2289 H   0  0  0  0  0  0  0  0  0  0  0  0
    0.6391    1.7529    0.7097 H   0  0  0  0  0  0  0  0  0  0  0  0
   -1.6014   -1.7664    0.3227 H   0  0  0  0  0  0  0  0  0  0  0  0
   -4.7052   -0.6123   -0.8998 H   0  0  0  0  0  0  0  0  0  0  0  0
   -3.7175   -2.0671   -0.4308 H   0  0  0  0  0  0  0  0  0  0  0  0
   -3.6287   -1.4963   -2.1172 H   0  0  0  0  0  0  0  0  0  0  0  0
  1  2  1  0
  1 11  1  0
  1 12  1  0
  1 13  1  0
  2  3  1  0
  2 14  1  0
  3  4  2  0
  3  5  1  0
  5  6  2  3
  5  7  1  0
  6 15  1  0
  6 16  1  0
  7  8  1  0
  7 17  1  0
  8  9  1  0
  8 10  2  0
  9 18  1  0
  9 19  1  0
  9 20  1  0
M  END

> <RosettaParamsInstructions>
M  ROOT 7
M  POLY_N_BB 7
M  POLY_CA_BB 5
M  POLY_C_BB 3
M  POLY_O_BB 4
M  POLY_IGNORE 1 10 9 14 11 12 13 18 19 20
M  POLY_UPPER 2
M  POLY_LOWER 8
M  POLY_CHG 0
M  POLY_PROPERTIES PROTEIN POLYMER ALPHA_AA ALIPHATIC
M  END

$$$$
DHA_new
     RDKit          3D

 20 19  0  0  0  0  0  0  0  0999 V2000
    2.6793   -1.0484    2.5813 C   0  0  0  0  0  0  0  0  0  0  0  0
    1.6673   -0.2275    1.9145 N   0  0  0  0  0  0  0  0  0  0  0  0
    0.5899   -0.8307    1.3066 C   0  0  0  0  0  0  0  0  0  0  0  0
    0.4888   -2.1060    1.3336 O   0  0  0  0  0  0  0  0  0  0  0  0
   -0.4765   -0.0751    0.6116 C   0  0  0  0  0  0  0  0  0  0  0  0
   -0.4219    1.2372    0.5540 C   0  0  0  0  0  0  0  0  0  0  0  0
   -1.5456   -0.7645    0.0147 N   0  0  0  0  0  0  0  0  0  0  0  0
   -2.6306   -0.2537   -0.6745 C   0  0  0  0  0  0  0  0  0  0  0  0
   -3.6946   -1.1627   -1.2531 C   0  0  0  0  0  0  0  0  0  0  0  0
   -2.8365    0.9558   -0.8820 O   0  0  0  0  0  0  0  0  0  0  0  0
    2.4100   -1.1279    3.6425 H   0  0  0  0  0  0  0  0  0  0  0  0
    3.6749   -0.5920    2.4208 H   0  0  0  0  0  0  0  0  0  0  0  0
    2.7121   -2.0691    2.1193 H   0  0  0  0  0  0  0  0  0  0  0  0
    1.8327    0.7808    1.9447 H   0  0  0  0  0  0  0  0  0  0  0  0
   -1.1450    1.8644    0.0747 H   0  0  0  0  0  0  0  0  0  0  0  0
    0.4478    1.7154    1.0453 H   0  0  0  0  0  0  0  0  0  0  0  0
   -1.5052   -1.8294    0.1126 H   0  0  0  0  0  0  0  0  0  0  0  0
   -3.8847   -0.9371   -2.3093 H   0  0  0  0  0  0  0  0  0  0  0  0
   -4.6190   -0.9815   -0.6870 H   0  0  0  0  0  0  0  0  0  0  0  0
   -3.3497   -2.2005   -1.1295 H   0  0  0  0  0  0  0  0  0  0  0  0
  1  2  1  0
  1 11  1  0
  1 12  1  0
  1 13  1  0
  2  3  1  0
  2 14  1  0
  3  4  2  0
  3  5  1  0
  5  6  2  3
  5  7  1  0
  6 15  1  0
  6 16  1  0
  7  8  1  0
  7 17  1  0
  8  9  1  0
  8 10  2  0
  9 18  1  0
  9 19  1  0
  9 20  1  0
M  END

> <RosettaParamsInstructions>
M  ROOT 7
M  POLY_N_BB 7
M  POLY_CA_BB 5
M  POLY_C_BB 3
M  POLY_O_BB 4
M  POLY_IGNORE 1 10 9 14 11 12 13 18 19 20
M  POLY_UPPER 2
M  POLY_LOWER 8
M  POLY_CHG 0
M  POLY_PROPERTIES PROTEIN POLYMER ALPHA_AA ALIPHATIC
M  END

$$$$
DHA_new
     RDKit          3D

 20 19  0  0  0  0  0  0  0  0999 V2000
    2.6411   -1.0524    2.5672 C   0  0  0  0  0  0  0  0  0  0  0  0
    1.6624   -0.2386    1.8529 N   0  0  0  0  0  0  0  0  0  0  0  0
    0.5482   -0.8497    1.3114 C   0  0  0  0  0  0  0  0  0  0  0  0
    0.3714   -2.0794    1.4258 O   0  0  0  0  0  0  0  0  0  0  0  0
   -0.4620   -0.0629    0.5835 C   0  0  0  0  0  0  0  0  0  0  0  0
   -0.2943    1.2249    0.4535 C   0  0  0  0  0  0  0  0  0  0  0  0
   -1.5713   -0.7617    0.0604 N   0  0  0  0  0  0  0  0  0  0  0  0
   -2.6368   -0.2378   -0.6533 C   0  0  0  0  0  0  0  0  0  0  0  0
   -3.7464   -1.1503   -1.1388 C   0  0  0  0  0  0  0  0  0  0  0  0
   -2.7638    0.9611   -0.9394 O   0  0  0  0  0  0  0  0  0  0  0  0
    3.0554   -0.5142    3.4462 H   0  0  0  0  0  0  0  0  0  0  0  0
    2.2111   -2.0041    2.9233 H   0  0  0  0  0  0  0  0  0  0  0  0
    3.5286   -1.2806    1.9098 H   0  0  0  0  0  0  0  0  0  0  0  0
    1.8499    0.7642    1.7849 H   0  0  0  0  0  0  0  0  0  0  0  0
   -1.0111    1.8250   -0.0704 H   0  0  0  0  0  0  0  0  0  0  0  0
    0.5443    1.7828    0.8437 H   0  0  0  0  0  0  0  0  0  0  0  0
   -1.6072   -1.8180    0.2262 H   0  0  0  0  0  0  0  0  0  0  0  0
   -3.2061   -2.0302   -1.5823 H   0  0  0  0  0  0  0  0  0  0  0  0
   -4.3123   -0.6969   -1.9550 H   0  0  0  0  0  0  0  0  0  0  0  0
   -4.4074   -1.4334   -0.3085 H   0  0  0  0  0  0  0  0  0  0  0  0
  1  2  1  0
  1 11  1  0
  1 12  1  0
  1 13  1  0
  2  3  1  0
  2 14  1  0
  3  4  2  0
  3  5  1  0
  5  6  2  3
  5  7  1  0
  6 15  1  0
  6 16  1  0
  7  8  1  0
  7 17  1  0
  8  9  1  0
  8 10  2  0
  9 18  1  0
  9 19  1  0
  9 20  1  0
M  END

> <RosettaParamsInstructions>
M  ROOT 7
M  POLY_N_BB 7
M  POLY_CA_BB 5
M  POLY_C_BB 3
M  POLY_O_BB 4
M  POLY_IGNORE 1 10 9 14 11 12 13 18 19 20
M  POLY_UPPER 2
M  POLY_LOWER 8
M  POLY_CHG 0
M  POLY_PROPERTIES PROTEIN POLYMER ALPHA_AA ALIPHATIC
M  END

$$$$
DHA_new
     RDKit          3D

 20 19  0  0  0  0  0  0  0  0999 V2000
    2.7024   -1.0404    2.5926 C   0  0  0  0  0  0  0  0  0  0  0  0
    1.7224   -0.2482    1.8361 N   0  0  0  0  0  0  0  0  0  0  0  0
    0.5608   -0.8435    1.3177 C   0  0  0  0  0  0  0  0  0  0  0  0
    0.3288   -2.0807    1.4900 O   0  0  0  0  0  0  0  0  0  0  0  0
   -0.4506   -0.0908    0.5527 C   0  0  0  0  0  0  0  0  0  0  0  0
   -0.2405    1.1873    0.3577 C   0  0  0  0  0  0  0  0  0  0  0  0
   -1.6004   -0.7655    0.0606 N   0  0  0  0  0  0  0  0  0  0  0  0
   -2.6683   -0.2527   -0.6776 C   0  0  0  0  0  0  0  0  0  0  0  0
   -3.8027   -1.1467   -1.1066 C   0  0  0  0  0  0  0  0  0  0  0  0
   -2.7853    0.9401   -1.0390 O   0  0  0  0  0  0  0  0  0  0  0  0
    3.5798   -1.2163    1.9674 H   0  0  0  0  0  0  0  0  0  0  0  0
    2.1871   -1.9640    2.9087 H   0  0  0  0  0  0  0  0  0  0  0  0
    3.0244   -0.5074    3.5030 H   0  0  0  0  0  0  0  0  0  0  0  0
    1.9733    0.7420    1.7355 H   0  0  0  0  0  0  0  0  0  0  0  0
    0.6464    1.6588    0.7493 H   0  0  0  0  0  0  0  0  0  0  0  0
   -0.9601    1.7774   -0.2000 H   0  0  0  0  0  0  0  0  0  0  0  0
   -1.6337   -1.8037    0.2978 H   0  0  0  0  0  0  0  0  0  0  0  0
   -3.9279   -0.9762   -2.1852 H   0  0  0  0  0  0  0  0  0  0  0  0
   -4.7139   -0.8312   -0.5689 H   0  0  0  0  0  0  0  0  0  0  0  0
   -3.5486   -2.1906   -0.8510 H   0  0  0  0  0  0  0  0  0  0  0  0
  1  2  1  0
  1 11  1  0
  1 12  1  0
  1 13  1  0
  2  3  1  0
  2 14  1  0
  3  4  2  0
  3  5  1  0
  5  6  2  3
  5  7  1  0
  6 15  1  0
  6 16  1  0
  7  8  1  0
  7 17  1  0
  8  9  1  0
  8 10  2  0
  9 18  1  0
  9 19  1  0
  9 20  1  0
M  END

> <RosettaParamsInstructions>
M  ROOT 7
M  POLY_N_BB 7
M  POLY_CA_BB 5
M  POLY_C_BB 3
M  POLY_O_BB 4
M  POLY_IGNORE 1 10 9 14 11 12 13 18 19 20
M  POLY_UPPER 2
M  POLY_LOWER 8
M  POLY_CHG 0
M  POLY_PROPERTIES PROTEIN POLYMER ALPHA_AA ALIPHATIC
M  END

$$$$
DHA_new
     RDKit          3D

 20 19  0  0  0  0  0  0  0  0999 V2000
    2.6716   -1.0827    2.6053 C   0  0  0  0  0  0  0  0  0  0  0  0
    1.6989   -0.2597    1.8861 N   0  0  0  0  0  0  0  0  0  0  0  0
    0.5514   -0.7922    1.3055 C   0  0  0  0  0  0  0  0  0  0  0  0
    0.3812   -2.0510    1.4296 O   0  0  0  0  0  0  0  0  0  0  0  0
   -0.4792   -0.0519    0.5667 C   0  0  0  0  0  0  0  0  0  0  0  0
   -0.3357    1.2359    0.4215 C   0  0  0  0  0  0  0  0  0  0  0  0
   -1.5954   -0.7326    0.0312 N   0  0  0  0  0  0  0  0  0  0  0  0
   -2.6606   -0.2157   -0.6880 C   0  0  0  0  0  0  0  0  0  0  0  0
   -3.7390   -1.1741   -1.1520 C   0  0  0  0  0  0  0  0  0  0  0  0
   -2.8162    0.9682   -0.9906 O   0  0  0  0  0  0  0  0  0  0  0  0
    2.5869   -0.9748    3.6925 H   0  0  0  0  0  0  0  0  0  0  0  0
    2.5483   -2.1596    2.3217 H   0  0  0  0  0  0  0  0  0  0  0  0
    3.6748   -0.7116    2.2966 H   0  0  0  0  0  0  0  0  0  0  0  0
    1.9039    0.7573    1.8255 H   0  0  0  0  0  0  0  0  0  0  0  0
    0.5392    1.7279    0.8487 H   0  0  0  0  0  0  0  0  0  0  0  0
   -1.0407    1.8424   -0.1015 H   0  0  0  0  0  0  0  0  0  0  0  0
   -1.5981   -1.7930    0.2189 H   0  0  0  0  0  0  0  0  0  0  0  0
   -4.1404   -0.8039   -2.0970 H   0  0  0  0  0  0  0  0  0  0  0  0
   -4.5012   -1.2427   -0.3606 H   0  0  0  0  0  0  0  0  0  0  0  0
   -3.2563   -2.1383   -1.3192 H   0  0  0  0  0  0  0  0  0  0  0  0
  1  2  1  0
  1 11  1  0
  1 12  1  0
  1 13  1  0
  2  3  1  0
  2 14  1  0
  3  4  2  0
  3  5  1  0
  5  6  2  3
  5  7  1  0
  6 15  1  0
  6 16  1  0
  7  8  1  0
  7 17  1  0
  8  9  1  0
  8 10  2  0
  9 18  1  0
  9 19  1  0
  9 20  1  0
M  END

> <RosettaParamsInstructions>
M  ROOT 7
M  POLY_N_BB 7
M  POLY_CA_BB 5
M  POLY_C_BB 3
M  POLY_O_BB 4
M  POLY_IGNORE 1 10 9 14 11 12 13 18 19 20
M  POLY_UPPER 2
M  POLY_LOWER 8
M  POLY_CHG 0
M  POLY_PROPERTIES PROTEIN POLYMER ALPHA_AA ALIPHATIC
M  END

$$$$
DHA_new
     RDKit          3D

 20 19  0  0  0  0  0  0  0  0999 V2000
    2.6695   -1.0565    2.5873 C   0  0  0  0  0  0  0  0  0  0  0  0
    1.6774   -0.2458    1.8700 N   0  0  0  0  0  0  0  0  0  0  0  0
    0.5501   -0.8256    1.2982 C   0  0  0  0  0  0  0  0  0  0  0  0
    0.3957   -2.0688    1.4085 O   0  0  0  0  0  0  0  0  0  0  0  0
   -0.4612   -0.0689    0.5783 C   0  0  0  0  0  0  0  0  0  0  0  0
   -0.3015    1.2221    0.4633 C   0  0  0  0  0  0  0  0  0  0  0  0
   -1.5744   -0.7741    0.0351 N   0  0  0  0  0  0  0  0  0  0  0  0
   -2.6399   -0.2579   -0.6778 C   0  0  0  0  0  0  0  0  0  0  0  0
   -3.7301   -1.1490   -1.1772 C   0  0  0  0  0  0  0  0  0  0  0  0
   -2.7609    0.9482   -0.9448 O   0  0  0  0  0  0  0  0  0  0  0  0
    2.3628   -1.1336    3.6374 H   0  0  0  0  0  0  0  0  0  0  0  0
    2.7192   -2.0378    2.1033 H   0  0  0  0  0  0  0  0  0  0  0  0
    3.6773   -0.5966    2.5308 H   0  0  0  0  0  0  0  0  0  0  0  0
    1.8795    0.7527    1.8275 H   0  0  0  0  0  0  0  0  0  0  0  0
    0.5624    1.7509    0.8879 H   0  0  0  0  0  0  0  0  0  0  0  0
   -0.9974    1.8921   -0.0563 H   0  0  0  0  0  0  0  0  0  0  0  0
   -1.5795   -1.8188    0.2014 H   0  0  0  0  0  0  0  0  0  0  0  0
   -3.5487   -1.5080   -2.2020 H   0  0  0  0  0  0  0  0  0  0  0  0
   -4.6866   -0.6155   -1.1047 H   0  0  0  0  0  0  0  0  0  0  0  0
   -3.8202   -2.0615   -0.5253 H   0  0  0  0  0  0  0  0  0  0  0  0
  1  2  1  0
  1 11  1  0
  1 12  1  0
  1 13  1  0
  2  3  1  0
  2 14  1  0
  3  4  2  0
  3  5  1  0
  5  6  2  3
  5  7  1  0
  6 15  1  0
  6 16  1  0
  7  8  1  0
  7 17  1  0
  8  9  1  0
  8 10  2  0
  9 18  1  0
  9 19  1  0
  9 20  1  0
M  END

> <RosettaParamsInstructions>
M  ROOT 7
M  POLY_N_BB 7
M  POLY_CA_BB 5
M  POLY_C_BB 3
M  POLY_O_BB 4
M  POLY_IGNORE 1 10 9 14 11 12 13 18 19 20
M  POLY_UPPER 2
M  POLY_LOWER 8
M  POLY_CHG 0
M  POLY_PROPERTIES PROTEIN POLYMER ALPHA_AA ALIPHATIC
M  END

$$$$
DHA_new
     RDKit          3D

 20 19  0  0  0  0  0  0  0  0999 V2000
    2.6953   -1.0582    2.5450 C   0  0  0  0  0  0  0  0  0  0  0  0
    1.6982   -0.2196    1.8697 N   0  0  0  0  0  0  0  0  0  0  0  0
    0.5963   -0.8188    1.2953 C   0  0  0  0  0  0  0  0  0  0  0  0
    0.4526   -2.0764    1.3532 O   0  0  0  0  0  0  0  0  0  0  0  0
   -0.4584   -0.0789    0.5976 C   0  0  0  0  0  0  0  0  0  0  0  0
   -0.3503    1.2200    0.5143 C   0  0  0  0  0  0  0  0  0  0  0  0
   -1.5645   -0.7657    0.0306 N   0  0  0  0  0  0  0  0  0  0  0  0
   -2.6608   -0.2773   -0.6630 C   0  0  0  0  0  0  0  0  0  0  0  0
   -3.7477   -1.1684   -1.1960 C   0  0  0  0  0  0  0  0  0  0  0  0
   -2.8279    0.9348   -0.8968 O   0  0  0  0  0  0  0  0  0  0  0  0
    3.7273   -0.7237    2.3071 H   0  0  0  0  0  0  0  0  0  0  0  0
    2.5615   -0.9313    3.6388 H   0  0  0  0  0  0  0  0  0  0  0  0
    2.5779   -2.1070    2.2181 H   0  0  0  0  0  0  0  0  0  0  0  0
    1.8945    0.7773    1.8718 H   0  0  0  0  0  0  0  0  0  0  0  0
   -1.0828    1.8427    0.0175 H   0  0  0  0  0  0  0  0  0  0  0  0
    0.5143    1.7089    0.9629 H   0  0  0  0  0  0  0  0  0  0  0  0
   -1.5343   -1.8313    0.1681 H   0  0  0  0  0  0  0  0  0  0  0  0
   -3.5470   -2.1992   -0.9023 H   0  0  0  0  0  0  0  0  0  0  0  0
   -4.6825   -0.8291   -0.7130 H   0  0  0  0  0  0  0  0  0  0  0  0
   -3.8681   -1.0508   -2.2780 H   0  0  0  0  0  0  0  0  0  0  0  0
  1  2  1  0
  1 11  1  0
  1 12  1  0
  1 13  1  0
  2  3  1  0
  2 14  1  0
  3  4  2  0
  3  5  1  0
  5  6  2  3
  5  7  1  0
  6 15  1  0
  6 16  1  0
  7  8  1  0
  7 17  1  0
  8  9  1  0
  8 10  2  0
  9 18  1  0
  9 19  1  0
  9 20  1  0
M  END

> <RosettaParamsInstructions>
M  ROOT 7
M  POLY_N_BB 7
M  POLY_CA_BB 5
M  POLY_C_BB 3
M  POLY_O_BB 4
M  POLY_IGNORE 1 10 9 14 11 12 13 18 19 20
M  POLY_UPPER 2
M  POLY_LOWER 8
M  POLY_CHG 0
M  POLY_PROPERTIES PROTEIN POLYMER ALPHA_AA ALIPHATIC
M  END

$$$$
DHA_new
     RDKit          3D

 20 19  0  0  0  0  0  0  0  0999 V2000
    2.7019   -1.0763    2.5718 C   0  0  0  0  0  0  0  0  0  0  0  0
    1.7039   -0.2327    1.8819 N   0  0  0  0  0  0  0  0  0  0  0  0
    0.5813   -0.8172    1.2951 C   0  0  0  0  0  0  0  0  0  0  0  0
    0.4357   -2.0641    1.3636 O   0  0  0  0  0  0  0  0  0  0  0  0
   -0.4731   -0.0662    0.5835 C   0  0  0  0  0  0  0  0  0  0  0  0
   -0.3987    1.2415    0.4658 C   0  0  0  0  0  0  0  0  0  0  0  0
   -1.5716   -0.7828    0.0272 N   0  0  0  0  0  0  0  0  0  0  0  0
   -2.6390   -0.2361   -0.6669 C   0  0  0  0  0  0  0  0  0  0  0  0
   -3.7148   -1.1689   -1.1832 C   0  0  0  0  0  0  0  0  0  0  0  0
   -2.8255    0.9547   -0.9233 O   0  0  0  0  0  0  0  0  0  0  0  0
    3.7020   -0.7875    2.1856 H   0  0  0  0  0  0  0  0  0  0  0  0
    2.6976   -0.8962    3.6508 H   0  0  0  0  0  0  0  0  0  0  0  0
    2.4843   -2.1442    2.3693 H   0  0  0  0  0  0  0  0  0  0  0  0
    1.8650    0.7809    1.8513 H   0  0  0  0  0  0  0  0  0  0  0  0
   -1.0987    1.8718   -0.0229 H   0  0  0  0  0  0  0  0  0  0  0  0
    0.4869    1.7264    0.9257 H   0  0  0  0  0  0  0  0  0  0  0  0
   -1.5699   -1.8459    0.1594 H   0  0  0  0  0  0  0  0  0  0  0  0
   -3.4655   -2.2128   -0.9699 H   0  0  0  0  0  0  0  0  0  0  0  0
   -4.6153   -0.9188   -0.5818 H   0  0  0  0  0  0  0  0  0  0  0  0
   -3.8931   -0.9780   -2.2422 H   0  0  0  0  0  0  0  0  0  0  0  0
  1  2  1  0
  1 11  1  0
  1 12  1  0
  1 13  1  0
  2  3  1  0
  2 14  1  0
  3  4  2  0
  3  5  1  0
  5  6  2  3
  5  7  1  0
  6 15  1  0
  6 16  1  0
  7  8  1  0
  7 17  1  0
  8  9  1  0
  8 10  2  0
  9 18  1  0
  9 19  1  0
  9 20  1  0
M  END

> <RosettaParamsInstructions>
M  ROOT 7
M  POLY_N_BB 7
M  POLY_CA_BB 5
M  POLY_C_BB 3
M  POLY_O_BB 4
M  POLY_IGNORE 1 10 9 14 11 12 13 18 19 20
M  POLY_UPPER 2
M  POLY_LOWER 8
M  POLY_CHG 0
M  POLY_PROPERTIES PROTEIN POLYMER ALPHA_AA ALIPHATIC
M  END

$$$$
DHA_new
     RDKit          3D

 20 19  0  0  0  0  0  0  0  0999 V2000
    2.7231   -1.0557    2.5447 C   0  0  0  0  0  0  0  0  0  0  0  0
    1.7293   -0.2611    1.8227 N   0  0  0  0  0  0  0  0  0  0  0  0
    0.5607   -0.8357    1.2923 C   0  0  0  0  0  0  0  0  0  0  0  0
    0.3955   -2.0910    1.4651 O   0  0  0  0  0  0  0  0  0  0  0  0
   -0.4592   -0.0625    0.5604 C   0  0  0  0  0  0  0  0  0  0  0  0
   -0.2816    1.2118    0.3907 C   0  0  0  0  0  0  0  0  0  0  0  0
   -1.5866   -0.7703    0.0811 N   0  0  0  0  0  0  0  0  0  0  0  0
   -2.6505   -0.2205   -0.6281 C   0  0  0  0  0  0  0  0  0  0  0  0
   -3.7715   -1.1483   -1.0576 C   0  0  0  0  0  0  0  0  0  0  0  0
   -2.8150    0.9636   -0.9697 O   0  0  0  0  0  0  0  0  0  0  0  0
    3.4761   -1.3834    1.8242 H   0  0  0  0  0  0  0  0  0  0  0  0
    2.1445   -1.9289    2.9573 H   0  0  0  0  0  0  0  0  0  0  0  0
    3.0976   -0.4638    3.3866 H   0  0  0  0  0  0  0  0  0  0  0  0
    1.9403    0.7297    1.7312 H   0  0  0  0  0  0  0  0  0  0  0  0
   -0.9903    1.8152   -0.1319 H   0  0  0  0  0  0  0  0  0  0  0  0
    0.5899    1.7071    0.7722 H   0  0  0  0  0  0  0  0  0  0  0  0
   -1.5977   -1.8096    0.2942 H   0  0  0  0  0  0  0  0  0  0  0  0
   -4.7306   -0.7169   -0.7517 H   0  0  0  0  0  0  0  0  0  0  0  0
   -3.7590   -1.1702   -2.1679 H   0  0  0  0  0  0  0  0  0  0  0  0
   -3.6215   -2.1617   -0.6750 H   0  0  0  0  0  0  0  0  0  0  0  0
  1  2  1  0
  1 11  1  0
  1 12  1  0
  1 13  1  0
  2  3  1  0
  2 14  1  0
  3  4  2  0
  3  5  1  0
  5  6  2  3
  5  7  1  0
  6 15  1  0
  6 16  1  0
  7  8  1  0
  7 17  1  0
  8  9  1  0
  8 10  2  0
  9 18  1  0
  9 19  1  0
  9 20  1  0
M  END

> <RosettaParamsInstructions>
M  ROOT 7
M  POLY_N_BB 7
M  POLY_CA_BB 5
M  POLY_C_BB 3
M  POLY_O_BB 4
M  POLY_IGNORE 1 10 9 14 11 12 13 18 19 20
M  POLY_UPPER 2
M  POLY_LOWER 8
M  POLY_CHG 0
M  POLY_PROPERTIES PROTEIN POLYMER ALPHA_AA ALIPHATIC
M  END

$$$$
DHA_new
     RDKit          3D

 20 19  0  0  0  0  0  0  0  0999 V2000
    2.6846   -1.0637    2.6006 C   0  0  0  0  0  0  0  0  0  0  0  0
    1.7019   -0.2357    1.8781 N   0  0  0  0  0  0  0  0  0  0  0  0
    0.5654   -0.8264    1.3147 C   0  0  0  0  0  0  0  0  0  0  0  0
    0.3823   -2.0759    1.4269 O   0  0  0  0  0  0  0  0  0  0  0  0
   -0.4502   -0.0403    0.5803 C   0  0  0  0  0  0  0  0  0  0  0  0
   -0.3089    1.2486    0.4366 C   0  0  0  0  0  0  0  0  0  0  0  0
   -1.5643   -0.7309    0.0476 N   0  0  0  0  0  0  0  0  0  0  0  0
   -2.6500   -0.2467   -0.6749 C   0  0  0  0  0  0  0  0  0  0  0  0
   -3.7475   -1.1575   -1.1591 C   0  0  0  0  0  0  0  0  0  0  0  0
   -2.7906    0.9467   -0.9673 O   0  0  0  0  0  0  0  0  0  0  0  0
    2.1456   -1.9735    2.9364 H   0  0  0  0  0  0  0  0  0  0  0  0
    3.4869   -1.4149    1.9030 H   0  0  0  0  0  0  0  0  0  0  0  0
    3.1362   -0.4941    3.4437 H   0  0  0  0  0  0  0  0  0  0  0  0
    1.8767    0.7746    1.8031 H   0  0  0  0  0  0  0  0  0  0  0  0
   -1.0417    1.8267   -0.0952 H   0  0  0  0  0  0  0  0  0  0  0  0
    0.5598    1.7880    0.8518 H   0  0  0  0  0  0  0  0  0  0  0  0
   -1.5845   -1.8055    0.2247 H   0  0  0  0  0  0  0  0  0  0  0  0
   -3.9691   -0.8915   -2.2124 H   0  0  0  0  0  0  0  0  0  0  0  0
   -4.6362   -1.0746   -0.4960 H   0  0  0  0  0  0  0  0  0  0  0  0
   -3.4028   -2.2055   -1.1018 H   0  0  0  0  0  0  0  0  0  0  0  0
  1  2  1  0
  1 11  1  0
  1 12  1  0
  1 13  1  0
  2  3  1  0
  2 14  1  0
  3  4  2  0
  3  5  1  0
  5  6  2  3
  5  7  1  0
  6 15  1  0
  6 16  1  0
  7  8  1  0
  7 17  1  0
  8  9  1  0
  8 10  2  0
  9 18  1  0
  9 19  1  0
  9 20  1  0
M  END

> <RosettaParamsInstructions>
M  ROOT 7
M  POLY_N_BB 7
M  POLY_CA_BB 5
M  POLY_C_BB 3
M  POLY_O_BB 4
M  POLY_IGNORE 1 10 9 14 11 12 13 18 19 20
M  POLY_UPPER 2
M  POLY_LOWER 8
M  POLY_CHG 0
M  POLY_PROPERTIES PROTEIN POLYMER ALPHA_AA ALIPHATIC
M  END

$$$$
DHA_new
     RDKit          3D

 20 19  0  0  0  0  0  0  0  0999 V2000
    2.6757   -1.0568    2.6107 C   0  0  0  0  0  0  0  0  0  0  0  0
    1.6991   -0.2415    1.8736 N   0  0  0  0  0  0  0  0  0  0  0  0
    0.5525   -0.8256    1.3154 C   0  0  0  0  0  0  0  0  0  0  0  0
    0.3757   -2.0728    1.4599 O   0  0  0  0  0  0  0  0  0  0  0  0
   -0.4733   -0.0786    0.5628 C   0  0  0  0  0  0  0  0  0  0  0  0
   -0.3308    1.2114    0.3896 C   0  0  0  0  0  0  0  0  0  0  0  0
   -1.5855   -0.7703    0.0464 N   0  0  0  0  0  0  0  0  0  0  0  0
   -2.6323   -0.2017   -0.6829 C   0  0  0  0  0  0  0  0  0  0  0  0
   -3.7254   -1.1567   -1.1358 C   0  0  0  0  0  0  0  0  0  0  0  0
   -2.7845    0.9684   -1.0057 O   0  0  0  0  0  0  0  0  0  0  0  0
    2.2515   -2.0638    2.8034 H   0  0  0  0  0  0  0  0  0  0  0  0
    2.9725   -0.5465    3.5431 H   0  0  0  0  0  0  0  0  0  0  0  0
    3.5566   -1.2232    1.9281 H   0  0  0  0  0  0  0  0  0  0  0  0
    1.8879    0.7589    1.7853 H   0  0  0  0  0  0  0  0  0  0  0  0
    0.5481    1.7507    0.7992 H   0  0  0  0  0  0  0  0  0  0  0  0
   -1.0436    1.8008   -0.1473 H   0  0  0  0  0  0  0  0  0  0  0  0
   -1.5845   -1.8244    0.2570 H   0  0  0  0  0  0  0  0  0  0  0  0
   -3.7721   -2.0151   -0.4406 H   0  0  0  0  0  0  0  0  0  0  0  0
   -3.5092   -1.4461   -2.1790 H   0  0  0  0  0  0  0  0  0  0  0  0
   -4.6850   -0.6194   -1.0422 H   0  0  0  0  0  0  0  0  0  0  0  0
  1  2  1  0
  1 11  1  0
  1 12  1  0
  1 13  1  0
  2  3  1  0
  2 14  1  0
  3  4  2  0
  3  5  1  0
  5  6  2  3
  5  7  1  0
  6 15  1  0
  6 16  1  0
  7  8  1  0
  7 17  1  0
  8  9  1  0
  8 10  2  0
  9 18  1  0
  9 19  1  0
  9 20  1  0
M  END

> <RosettaParamsInstructions>
M  ROOT 7
M  POLY_N_BB 7
M  POLY_CA_BB 5
M  POLY_C_BB 3
M  POLY_O_BB 4
M  POLY_IGNORE 1 10 9 14 11 12 13 18 19 20
M  POLY_UPPER 2
M  POLY_LOWER 8
M  POLY_CHG 0
M  POLY_PROPERTIES PROTEIN POLYMER ALPHA_AA ALIPHATIC
M  END

$$$$
DHA_new
     RDKit          3D

 20 19  0  0  0  0  0  0  0  0999 V2000
    2.7034   -1.0548    2.5826 C   0  0  0  0  0  0  0  0  0  0  0  0
    1.6660   -0.2450    1.9124 N   0  0  0  0  0  0  0  0  0  0  0  0
    0.5673   -0.8259    1.2845 C   0  0  0  0  0  0  0  0  0  0  0  0
    0.4595   -2.0754    1.2908 O   0  0  0  0  0  0  0  0  0  0  0  0
   -0.4966   -0.0781    0.6019 C   0  0  0  0  0  0  0  0  0  0  0  0
   -0.4313    1.2331    0.5666 C   0  0  0  0  0  0  0  0  0  0  0  0
   -1.5659   -0.7642   -0.0023 N   0  0  0  0  0  0  0  0  0  0  0  0
   -2.6391   -0.2450   -0.6775 C   0  0  0  0  0  0  0  0  0  0  0  0
   -3.6873   -1.1766   -1.2550 C   0  0  0  0  0  0  0  0  0  0  0  0
   -2.8419    0.9615   -0.8682 O   0  0  0  0  0  0  0  0  0  0  0  0
    2.8002   -0.6883    3.6272 H   0  0  0  0  0  0  0  0  0  0  0  0
    3.6835   -0.9403    2.0646 H   0  0  0  0  0  0  0  0  0  0  0  0
    2.4208   -2.1188    2.5880 H   0  0  0  0  0  0  0  0  0  0  0  0
    1.8448    0.7698    1.9623 H   0  0  0  0  0  0  0  0  0  0  0  0
   -1.1649    1.8536    0.0899 H   0  0  0  0  0  0  0  0  0  0  0  0
    0.4315    1.7049    1.0588 H   0  0  0  0  0  0  0  0  0  0  0  0
   -1.5211   -1.8350    0.0856 H   0  0  0  0  0  0  0  0  0  0  0  0
   -4.6845   -0.6865   -1.1483 H   0  0  0  0  0  0  0  0  0  0  0  0
   -3.6456   -2.1198   -0.6822 H   0  0  0  0  0  0  0  0  0  0  0  0
   -3.5052   -1.3214   -2.3408 H   0  0  0  0  0  0  0  0  0  0  0  0
  1  2  1  0
  1 11  1  0
  1 12  1  0
  1 13  1  0
  2  3  1  0
  2 14  1  0
  3  4  2  0
  3  5  1  0
  5  6  2  3
  5  7  1  0
  6 15  1  0
  6 16  1  0
  7  8  1  0
  7 17  1  0
  8  9  1  0
  8 10  2  0
  9 18  1  0
  9 19  1  0
  9 20  1  0
M  END

> <RosettaParamsInstructions>
M  ROOT 7
M  POLY_N_BB 7
M  POLY_CA_BB 5
M  POLY_C_BB 3
M  POLY_O_BB 4
M  POLY_IGNORE 1 10 9 14 11 12 13 18 19 20
M  POLY_UPPER 2
M  POLY_LOWER 8
M  POLY_CHG 0
M  POLY_PROPERTIES PROTEIN POLYMER ALPHA_AA ALIPHATIC
M  END

$$$$
DHA_new
     RDKit          3D

 20 19  0  0  0  0  0  0  0  0999 V2000
    2.6167   -1.0559    2.6285 C   0  0  0  0  0  0  0  0  0  0  0  0
    1.6757   -0.2184    1.8536 N   0  0  0  0  0  0  0  0  0  0  0  0
    0.5432   -0.8429    1.3303 C   0  0  0  0  0  0  0  0  0  0  0  0
    0.3330   -2.0778    1.5136 O   0  0  0  0  0  0  0  0  0  0  0  0
   -0.4586   -0.0814    0.5379 C   0  0  0  0  0  0  0  0  0  0  0  0
   -0.2855    1.1962    0.3216 C   0  0  0  0  0  0  0  0  0  0  0  0
   -1.5821   -0.7648    0.0348 N   0  0  0  0  0  0  0  0  0  0  0  0
   -2.6031   -0.2212   -0.7144 C   0  0  0  0  0  0  0  0  0  0  0  0
   -3.7256   -1.1427   -1.1573 C   0  0  0  0  0  0  0  0  0  0  0  0
   -2.6932    0.9573   -1.0640 O   0  0  0  0  0  0  0  0  0  0  0  0
    3.6359   -1.0023    2.1978 H   0  0  0  0  0  0  0  0  0  0  0  0
    2.6217   -0.6301    3.6563 H   0  0  0  0  0  0  0  0  0  0  0  0
    2.2761   -2.0914    2.6767 H   0  0  0  0  0  0  0  0  0  0  0  0
    1.9362    0.7671    1.7629 H   0  0  0  0  0  0  0  0  0  0  0  0
   -0.9572    1.8044   -0.2341 H   0  0  0  0  0  0  0  0  0  0  0  0
    0.6095    1.6702    0.7401 H   0  0  0  0  0  0  0  0  0  0  0  0
   -1.6114   -1.8028    0.2774 H   0  0  0  0  0  0  0  0  0  0  0  0
   -4.2530   -0.7273   -2.0309 H   0  0  0  0  0  0  0  0  0  0  0  0
   -3.3005   -2.1523   -1.3294 H   0  0  0  0  0  0  0  0  0  0  0  0
   -4.3842   -1.2361   -0.2605 H   0  0  0  0  0  0  0  0  0  0  0  0
  1  2  1  0
  1 11  1  0
  1 12  1  0
  1 13  1  0
  2  3  1  0
  2 14  1  0
  3  4  2  0
  3  5  1  0
  5  6  2  3
  5  7  1  0
  6 15  1  0
  6 16  1  0
  7  8  1  0
  7 17  1  0
  8  9  1  0
  8 10  2  0
  9 18  1  0
  9 19  1  0
  9 20  1  0
M  END

> <RosettaParamsInstructions>
M  ROOT 7
M  POLY_N_BB 7
M  POLY_CA_BB 5
M  POLY_C_BB 3
M  POLY_O_BB 4
M  POLY_IGNORE 1 10 9 14 11 12 13 18 19 20
M  POLY_UPPER 2
M  POLY_LOWER 8
M  POLY_CHG 0
M  POLY_PROPERTIES PROTEIN POLYMER ALPHA_AA ALIPHATIC
M  END

$$$$
DHA_new
     RDKit          3D

 20 19  0  0  0  0  0  0  0  0999 V2000
    2.6542   -1.0659    2.5745 C   0  0  0  0  0  0  0  0  0  0  0  0
    1.6785   -0.2178    1.8575 N   0  0  0  0  0  0  0  0  0  0  0  0
    0.5643   -0.8442    1.3102 C   0  0  0  0  0  0  0  0  0  0  0  0
    0.4074   -2.0959    1.4312 O   0  0  0  0  0  0  0  0  0  0  0  0
   -0.4760   -0.0784    0.5693 C   0  0  0  0  0  0  0  0  0  0  0  0
   -0.3615    1.2184    0.4157 C   0  0  0  0  0  0  0  0  0  0  0  0
   -1.5821   -0.7809    0.0397 N   0  0  0  0  0  0  0  0  0  0  0  0
   -2.6309   -0.2174   -0.6718 C   0  0  0  0  0  0  0  0  0  0  0  0
   -3.7196   -1.1857   -1.1460 C   0  0  0  0  0  0  0  0  0  0  0  0
   -2.7535    0.9725   -0.9463 O   0  0  0  0  0  0  0  0  0  0  0  0
    2.1926   -2.0224    2.8447 H   0  0  0  0  0  0  0  0  0  0  0  0
    3.5210   -1.2824    1.9352 H   0  0  0  0  0  0  0  0  0  0  0  0
    2.9836   -0.4803    3.4663 H   0  0  0  0  0  0  0  0  0  0  0  0
    1.9078    0.7896    1.8203 H   0  0  0  0  0  0  0  0  0  0  0  0
   -1.0578    1.8464   -0.0998 H   0  0  0  0  0  0  0  0  0  0  0  0
    0.5324    1.6942    0.8593 H   0  0  0  0  0  0  0  0  0  0  0  0
   -1.5770   -1.8363    0.2223 H   0  0  0  0  0  0  0  0  0  0  0  0
   -3.3361   -2.2064   -1.1894 H   0  0  0  0  0  0  0  0  0  0  0  0
   -4.0166   -0.8041   -2.1448 H   0  0  0  0  0  0  0  0  0  0  0  0
   -4.5370   -1.0550   -0.4074 H   0  0  0  0  0  0  0  0  0  0  0  0
  1  2  1  0
  1 11  1  0
  1 12  1  0
  1 13  1  0
  2  3  1  0
  2 14  1  0
  3  4  2  0
  3  5  1  0
  5  6  2  3
  5  7  1  0
  6 15  1  0
  6 16  1  0
  7  8  1  0
  7 17  1  0
  8  9  1  0
  8 10  2  0
  9 18  1  0
  9 19  1  0
  9 20  1  0
M  END

> <RosettaParamsInstructions>
M  ROOT 7
M  POLY_N_BB 7
M  POLY_CA_BB 5
M  POLY_C_BB 3
M  POLY_O_BB 4
M  POLY_IGNORE 1 10 9 14 11 12 13 18 19 20
M  POLY_UPPER 2
M  POLY_LOWER 8
M  POLY_CHG 0
M  POLY_PROPERTIES PROTEIN POLYMER ALPHA_AA ALIPHATIC
M  END

$$$$
DHA_new
     RDKit          3D

 20 19  0  0  0  0  0  0  0  0999 V2000
    2.6496   -1.0625    2.5747 C   0  0  0  0  0  0  0  0  0  0  0  0
    1.6890   -0.2367    1.8712 N   0  0  0  0  0  0  0  0  0  0  0  0
    0.5536   -0.8183    1.3067 C   0  0  0  0  0  0  0  0  0  0  0  0
    0.3772   -2.0832    1.4204 O   0  0  0  0  0  0  0  0  0  0  0  0
   -0.4735   -0.0506    0.5742 C   0  0  0  0  0  0  0  0  0  0  0  0
   -0.3145    1.2462    0.4448 C   0  0  0  0  0  0  0  0  0  0  0  0
   -1.5804   -0.7709    0.0502 N   0  0  0  0  0  0  0  0  0  0  0  0
   -2.6355   -0.2197   -0.6615 C   0  0  0  0  0  0  0  0  0  0  0  0
   -3.7316   -1.1508   -1.1430 C   0  0  0  0  0  0  0  0  0  0  0  0
   -2.8085    0.9699   -0.9666 O   0  0  0  0  0  0  0  0  0  0  0  0
    3.6649   -0.6216    2.4704 H   0  0  0  0  0  0  0  0  0  0  0  0
    2.7022   -2.0794    2.1327 H   0  0  0  0  0  0  0  0  0  0  0  0
    2.4353   -1.1121    3.6602 H   0  0  0  0  0  0  0  0  0  0  0  0
    1.8842    0.7653    1.8136 H   0  0  0  0  0  0  0  0  0  0  0  0
   -1.0410    1.8362   -0.0813 H   0  0  0  0  0  0  0  0  0  0  0  0
    0.5536    1.7473    0.8667 H   0  0  0  0  0  0  0  0  0  0  0  0
   -1.5993   -1.8311    0.2209 H   0  0  0  0  0  0  0  0  0  0  0  0
   -4.1333   -0.7909   -2.1170 H   0  0  0  0  0  0  0  0  0  0  0  0
   -4.5233   -1.2335   -0.3686 H   0  0  0  0  0  0  0  0  0  0  0  0
   -3.2752   -2.1558   -1.3278 H   0  0  0  0  0  0  0  0  0  0  0  0
  1  2  1  0
  1 11  1  0
  1 12  1  0
  1 13  1  0
  2  3  1  0
  2 14  1  0
  3  4  2  0
  3  5  1  0
  5  6  2  3
  5  7  1  0
  6 15  1  0
  6 16  1  0
  7  8  1  0
  7 17  1  0
  8  9  1  0
  8 10  2  0
  9 18  1  0
  9 19  1  0
  9 20  1  0
M  END

> <RosettaParamsInstructions>
M  ROOT 7
M  POLY_N_BB 7
M  POLY_CA_BB 5
M  POLY_C_BB 3
M  POLY_O_BB 4
M  POLY_IGNORE 1 10 9 14 11 12 13 18 19 20
M  POLY_UPPER 2
M  POLY_LOWER 8
M  POLY_CHG 0
M  POLY_PROPERTIES PROTEIN POLYMER ALPHA_AA ALIPHATIC
M  END

$$$$
DHA_new
     RDKit          3D

 20 19  0  0  0  0  0  0  0  0999 V2000
    2.7193   -1.0546    2.5324 C   0  0  0  0  0  0  0  0  0  0  0  0
    1.7141   -0.2344    1.8838 N   0  0  0  0  0  0  0  0  0  0  0  0
    0.5951   -0.8006    1.2871 C   0  0  0  0  0  0  0  0  0  0  0  0
    0.4829   -2.0762    1.3304 O   0  0  0  0  0  0  0  0  0  0  0  0
   -0.4756   -0.0472    0.6063 C   0  0  0  0  0  0  0  0  0  0  0  0
   -0.4147    1.2521    0.5314 C   0  0  0  0  0  0  0  0  0  0  0  0
   -1.5672   -0.7506    0.0369 N   0  0  0  0  0  0  0  0  0  0  0  0
   -2.6781   -0.2447   -0.6461 C   0  0  0  0  0  0  0  0  0  0  0  0
   -3.7452   -1.1808   -1.1817 C   0  0  0  0  0  0  0  0  0  0  0  0
   -2.8676    0.9704   -0.8581 O   0  0  0  0  0  0  0  0  0  0  0  0
    3.6945   -0.5376    2.6301 H   0  0  0  0  0  0  0  0  0  0  0  0
    2.8995   -2.0028    1.9666 H   0  0  0  0  0  0  0  0  0  0  0  0
    2.4234   -1.3546    3.5555 H   0  0  0  0  0  0  0  0  0  0  0  0
    1.8778    0.7801    1.8922 H   0  0  0  0  0  0  0  0  0  0  0  0
    0.4691    1.7380    0.9995 H   0  0  0  0  0  0  0  0  0  0  0  0
   -1.1469    1.8956    0.0551 H   0  0  0  0  0  0  0  0  0  0  0  0
   -1.5697   -1.8326    0.1271 H   0  0  0  0  0  0  0  0  0  0  0  0
   -3.5817   -2.2106   -0.8228 H   0  0  0  0  0  0  0  0  0  0  0  0
   -4.7521   -0.7920   -0.9057 H   0  0  0  0  0  0  0  0  0  0  0  0
   -3.6835   -1.1691   -2.2792 H   0  0  0  0  0  0  0  0  0  0  0  0
  1  2  1  0
  1 11  1  0
  1 12  1  0
  1 13  1  0
  2  3  1  0
  2 14  1  0
  3  4  2  0
  3  5  1  0
  5  6  2  3
  5  7  1  0
  6 15  1  0
  6 16  1  0
  7  8  1  0
  7 17  1  0
  8  9  1  0
  8 10  2  0
  9 18  1  0
  9 19  1  0
  9 20  1  0
M  END

> <RosettaParamsInstructions>
M  ROOT 7
M  POLY_N_BB 7
M  POLY_CA_BB 5
M  POLY_C_BB 3
M  POLY_O_BB 4
M  POLY_IGNORE 1 10 9 14 11 12 13 18 19 20
M  POLY_UPPER 2
M  POLY_LOWER 8
M  POLY_CHG 0
M  POLY_PROPERTIES PROTEIN POLYMER ALPHA_AA ALIPHATIC
M  END

$$$$
DHA_new
     RDKit          3D

 20 19  0  0  0  0  0  0  0  0999 V2000
    2.7029   -1.0428    2.5736 C   0  0  0  0  0  0  0  0  0  0  0  0
    1.7004   -0.2265    1.8595 N   0  0  0  0  0  0  0  0  0  0  0  0
    0.5649   -0.8400    1.2908 C   0  0  0  0  0  0  0  0  0  0  0  0
    0.4271   -2.1043    1.4076 O   0  0  0  0  0  0  0  0  0  0  0  0
   -0.4694   -0.0892    0.5683 C   0  0  0  0  0  0  0  0  0  0  0  0
   -0.3411    1.2025    0.4417 C   0  0  0  0  0  0  0  0  0  0  0  0
   -1.5818   -0.7908    0.0269 N   0  0  0  0  0  0  0  0  0  0  0  0
   -2.6434   -0.2471   -0.6792 C   0  0  0  0  0  0  0  0  0  0  0  0
   -3.7363   -1.1616   -1.1759 C   0  0  0  0  0  0  0  0  0  0  0  0
   -2.7637    0.9519   -0.9368 O   0  0  0  0  0  0  0  0  0  0  0  0
    2.2569   -2.0369    2.7586 H   0  0  0  0  0  0  0  0  0  0  0  0
    3.6229   -1.1440    1.9928 H   0  0  0  0  0  0  0  0  0  0  0  0
    2.8732   -0.5630    3.5651 H   0  0  0  0  0  0  0  0  0  0  0  0
    1.9409    0.7823    1.8427 H   0  0  0  0  0  0  0  0  0  0  0  0
   -1.0067    1.8822   -0.0539 H   0  0  0  0  0  0  0  0  0  0  0  0
    0.5386    1.7182    0.8760 H   0  0  0  0  0  0  0  0  0  0  0  0
   -1.6134   -1.8599    0.1753 H   0  0  0  0  0  0  0  0  0  0  0  0
   -4.7088   -0.6117   -1.2012 H   0  0  0  0  0  0  0  0  0  0  0  0
   -3.5217   -1.5267   -2.1818 H   0  0  0  0  0  0  0  0  0  0  0  0
   -3.8481   -1.9449   -0.4094 H   0  0  0  0  0  0  0  0  0  0  0  0
  1  2  1  0
  1 11  1  0
  1 12  1  0
  1 13  1  0
  2  3  1  0
  2 14  1  0
  3  4  2  0
  3  5  1  0
  5  6  2  3
  5  7  1  0
  6 15  1  0
  6 16  1  0
  7  8  1  0
  7 17  1  0
  8  9  1  0
  8 10  2  0
  9 18  1  0
  9 19  1  0
  9 20  1  0
M  END

> <RosettaParamsInstructions>
M  ROOT 7
M  POLY_N_BB 7
M  POLY_CA_BB 5
M  POLY_C_BB 3
M  POLY_O_BB 4
M  POLY_IGNORE 1 10 9 14 11 12 13 18 19 20
M  POLY_UPPER 2
M  POLY_LOWER 8
M  POLY_CHG 0
M  POLY_PROPERTIES PROTEIN POLYMER ALPHA_AA ALIPHATIC
M  END

$$$$
DHA_new
     RDKit          3D

 20 19  0  0  0  0  0  0  0  0999 V2000
    2.6452   -1.0114    2.6769 C   0  0  0  0  0  0  0  0  0  0  0  0
    1.6801   -0.2428    1.8850 N   0  0  0  0  0  0  0  0  0  0  0  0
    0.5364   -0.8148    1.3421 C   0  0  0  0  0  0  0  0  0  0  0  0
    0.3475   -2.0644    1.5605 O   0  0  0  0  0  0  0  0  0  0  0  0
   -0.4668   -0.0818    0.5366 C   0  0  0  0  0  0  0  0  0  0  0  0
   -0.2546    1.1948    0.3251 C   0  0  0  0  0  0  0  0  0  0  0  0
   -1.5841   -0.8019    0.0492 N   0  0  0  0  0  0  0  0  0  0  0  0
   -2.6092   -0.2605   -0.7186 C   0  0  0  0  0  0  0  0  0  0  0  0
   -3.7572   -1.1329   -1.1841 C   0  0  0  0  0  0  0  0  0  0  0  0
   -2.6786    0.9154   -1.0744 O   0  0  0  0  0  0  0  0  0  0  0  0
    3.6760   -0.6952    2.4148 H   0  0  0  0  0  0  0  0  0  0  0  0
    2.4007   -0.9206    3.7373 H   0  0  0  0  0  0  0  0  0  0  0  0
    2.5129   -2.0797    2.3665 H   0  0  0  0  0  0  0  0  0  0  0  0
    1.9303    0.7517    1.7719 H   0  0  0  0  0  0  0  0  0  0  0  0
   -0.9291    1.8077   -0.2484 H   0  0  0  0  0  0  0  0  0  0  0  0
    0.6344    1.6854    0.7349 H   0  0  0  0  0  0  0  0  0  0  0  0
   -1.6277   -1.8388    0.2992 H   0  0  0  0  0  0  0  0  0  0  0  0
   -3.4979   -1.5782   -2.1452 H   0  0  0  0  0  0  0  0  0  0  0  0
   -3.8563   -1.9206   -0.4099 H   0  0  0  0  0  0  0  0  0  0  0  0
   -4.7084   -0.5635   -1.1785 H   0  0  0  0  0  0  0  0  0  0  0  0
  1  2  1  0
  1 11  1  0
  1 12  1  0
  1 13  1  0
  2  3  1  0
  2 14  1  0
  3  4  2  0
  3  5  1  0
  5  6  2  3
  5  7  1  0
  6 15  1  0
  6 16  1  0
  7  8  1  0
  7 17  1  0
  8  9  1  0
  8 10  2  0
  9 18  1  0
  9 19  1  0
  9 20  1  0
M  END

> <RosettaParamsInstructions>
M  ROOT 7
M  POLY_N_BB 7
M  POLY_CA_BB 5
M  POLY_C_BB 3
M  POLY_O_BB 4
M  POLY_IGNORE 1 10 9 14 11 12 13 18 19 20
M  POLY_UPPER 2
M  POLY_LOWER 8
M  POLY_CHG 0
M  POLY_PROPERTIES PROTEIN POLYMER ALPHA_AA ALIPHATIC
M  END

$$$$
DHA_new
     RDKit          3D

 20 19  0  0  0  0  0  0  0  0999 V2000
    2.6247   -1.0191    2.6701 C   0  0  0  0  0  0  0  0  0  0  0  0
    1.7261   -0.2331    1.8282 N   0  0  0  0  0  0  0  0  0  0  0  0
    0.5399   -0.8105    1.3554 C   0  0  0  0  0  0  0  0  0  0  0  0
    0.2726   -2.0152    1.6718 O   0  0  0  0  0  0  0  0  0  0  0  0
   -0.4155   -0.1014    0.5123 C   0  0  0  0  0  0  0  0  0  0  0  0
   -0.1251    1.1419    0.1938 C   0  0  0  0  0  0  0  0  0  0  0  0
   -1.5814   -0.7651    0.0935 N   0  0  0  0  0  0  0  0  0  0  0  0
   -2.6179   -0.2731   -0.7032 C   0  0  0  0  0  0  0  0  0  0  0  0
   -3.8082   -1.1233   -1.0607 C   0  0  0  0  0  0  0  0  0  0  0  0
   -2.6784    0.8830   -1.1942 O   0  0  0  0  0  0  0  0  0  0  0  0
    2.8890   -1.9121    2.1083 H   0  0  0  0  0  0  0  0  0  0  0  0
    2.0495   -1.3306    3.5643 H   0  0  0  0  0  0  0  0  0  0  0  0
    3.4989   -0.4405    2.9544 H   0  0  0  0  0  0  0  0  0  0  0  0
    2.0422    0.7313    1.6313 H   0  0  0  0  0  0  0  0  0  0  0  0
   -0.7927    1.7075   -0.4239 H   0  0  0  0  0  0  0  0  0  0  0  0
    0.7591    1.6537    0.5165 H   0  0  0  0  0  0  0  0  0  0  0  0
   -1.6922   -1.7775    0.4252 H   0  0  0  0  0  0  0  0  0  0  0  0
   -4.0802   -0.8926   -2.0944 H   0  0  0  0  0  0  0  0  0  0  0  0
   -3.5774   -2.2000   -0.9217 H   0  0  0  0  0  0  0  0  0  0  0  0
   -4.6395   -0.8755   -0.3863 H   0  0  0  0  0  0  0  0  0  0  0  0
  1  2  1  0
  1 11  1  0
  1 12  1  0
  1 13  1  0
  2  3  1  0
  2 14  1  0
  3  4  2  0
  3  5  1  0
  5  6  2  3
  5  7  1  0
  6 15  1  0
  6 16  1  0
  7  8  1  0
  7 17  1  0
  8  9  1  0
  8 10  2  0
  9 18  1  0
  9 19  1  0
  9 20  1  0
M  END

> <RosettaParamsInstructions>
M  ROOT 7
M  POLY_N_BB 7
M  POLY_CA_BB 5
M  POLY_C_BB 3
M  POLY_O_BB 4
M  POLY_IGNORE 1 10 9 14 11 12 13 18 19 20
M  POLY_UPPER 2
M  POLY_LOWER 8
M  POLY_CHG 0
M  POLY_PROPERTIES PROTEIN POLYMER ALPHA_AA ALIPHATIC
M  END

$$$$
DHA_new
     RDKit          3D

 20 19  0  0  0  0  0  0  0  0999 V2000
    2.7114   -1.1020    2.5248 C   0  0  0  0  0  0  0  0  0  0  0  0
    1.7201   -0.2442    1.8775 N   0  0  0  0  0  0  0  0  0  0  0  0
    0.5787   -0.7895    1.2719 C   0  0  0  0  0  0  0  0  0  0  0  0
    0.4534   -2.0543    1.3153 O   0  0  0  0  0  0  0  0  0  0  0  0
   -0.4802   -0.0376    0.5955 C   0  0  0  0  0  0  0  0  0  0  0  0
   -0.3922    1.2627    0.5274 C   0  0  0  0  0  0  0  0  0  0  0  0
   -1.5656   -0.7482    0.0371 N   0  0  0  0  0  0  0  0  0  0  0  0
   -2.6653   -0.2378   -0.6408 C   0  0  0  0  0  0  0  0  0  0  0  0
   -3.7357   -1.1843   -1.1690 C   0  0  0  0  0  0  0  0  0  0  0  0
   -2.8427    0.9833   -0.8539 O   0  0  0  0  0  0  0  0  0  0  0  0
    2.1581   -1.9314    3.0122 H   0  0  0  0  0  0  0  0  0  0  0  0
    3.2657   -0.4943    3.2655 H   0  0  0  0  0  0  0  0  0  0  0  0
    3.4217   -1.4778    1.7807 H   0  0  0  0  0  0  0  0  0  0  0  0
    1.8741    0.7817    1.8724 H   0  0  0  0  0  0  0  0  0  0  0  0
   -1.1206    1.9046    0.0508 H   0  0  0  0  0  0  0  0  0  0  0  0
    0.4705    1.7626    0.9772 H   0  0  0  0  0  0  0  0  0  0  0  0
   -1.5608   -1.8300    0.1385 H   0  0  0  0  0  0  0  0  0  0  0  0
   -3.6263   -2.1430   -0.6219 H   0  0  0  0  0  0  0  0  0  0  0  0
   -4.7409   -0.7520   -0.9813 H   0  0  0  0  0  0  0  0  0  0  0  0
   -3.5298   -1.3207   -2.2390 H   0  0  0  0  0  0  0  0  0  0  0  0
  1  2  1  0
  1 11  1  0
  1 12  1  0
  1 13  1  0
  2  3  1  0
  2 14  1  0
  3  4  2  0
  3  5  1  0
  5  6  2  3
  5  7  1  0
  6 15  1  0
  6 16  1  0
  7  8  1  0
  7 17  1  0
  8  9  1  0
  8 10  2  0
  9 18  1  0
  9 19  1  0
  9 20  1  0
M  END

> <RosettaParamsInstructions>
M  ROOT 7
M  POLY_N_BB 7
M  POLY_CA_BB 5
M  POLY_C_BB 3
M  POLY_O_BB 4
M  POLY_IGNORE 1 10 9 14 11 12 13 18 19 20
M  POLY_UPPER 2
M  POLY_LOWER 8
M  POLY_CHG 0
M  POLY_PROPERTIES PROTEIN POLYMER ALPHA_AA ALIPHATIC
M  END

$$$$
DHA_new
     RDKit          3D

 20 19  0  0  0  0  0  0  0  0999 V2000
    2.6847   -1.0407    2.5820 C   0  0  0  0  0  0  0  0  0  0  0  0
    1.6865   -0.2341    1.8661 N   0  0  0  0  0  0  0  0  0  0  0  0
    0.5531   -0.8284    1.3089 C   0  0  0  0  0  0  0  0  0  0  0  0
    0.4006   -2.0904    1.4342 O   0  0  0  0  0  0  0  0  0  0  0  0
   -0.4529   -0.0636    0.5955 C   0  0  0  0  0  0  0  0  0  0  0  0
   -0.3116    1.2268    0.4590 C   0  0  0  0  0  0  0  0  0  0  0  0
   -1.5666   -0.7946    0.0730 N   0  0  0  0  0  0  0  0  0  0  0  0
   -2.6513   -0.2658   -0.6461 C   0  0  0  0  0  0  0  0  0  0  0  0
   -3.7710   -1.1540   -1.1454 C   0  0  0  0  0  0  0  0  0  0  0  0
   -2.8014    0.9418   -0.9377 O   0  0  0  0  0  0  0  0  0  0  0  0
    3.6905   -0.6087    2.4311 H   0  0  0  0  0  0  0  0  0  0  0  0
    2.4147   -1.0895    3.6600 H   0  0  0  0  0  0  0  0  0  0  0  0
    2.7060   -2.0790    2.1456 H   0  0  0  0  0  0  0  0  0  0  0  0
    1.8908    0.7652    1.8153 H   0  0  0  0  0  0  0  0  0  0  0  0
    0.5475    1.7233    0.8735 H   0  0  0  0  0  0  0  0  0  0  0  0
   -0.9998    1.8920   -0.0531 H   0  0  0  0  0  0  0  0  0  0  0  0
   -1.6124   -1.8562    0.2262 H   0  0  0  0  0  0  0  0  0  0  0  0
   -3.5442   -1.3240   -2.2215 H   0  0  0  0  0  0  0  0  0  0  0  0
   -4.7318   -0.6429   -1.0955 H   0  0  0  0  0  0  0  0  0  0  0  0
   -3.7378   -2.1294   -0.6302 H   0  0  0  0  0  0  0  0  0  0  0  0
  1  2  1  0
  1 11  1  0
  1 12  1  0
  1 13  1  0
  2  3  1  0
  2 14  1  0
  3  4  2  0
  3  5  1  0
  5  6  2  3
  5  7  1  0
  6 15  1  0
  6 16  1  0
  7  8  1  0
  7 17  1  0
  8  9  1  0
  8 10  2  0
  9 18  1  0
  9 19  1  0
  9 20  1  0
M  END

> <RosettaParamsInstructions>
M  ROOT 7
M  POLY_N_BB 7
M  POLY_CA_BB 5
M  POLY_C_BB 3
M  POLY_O_BB 4
M  POLY_IGNORE 1 10 9 14 11 12 13 18 19 20
M  POLY_UPPER 2
M  POLY_LOWER 8
M  POLY_CHG 0
M  POLY_PROPERTIES PROTEIN POLYMER ALPHA_AA ALIPHATIC
M  END

$$$$
DHA_new
     RDKit          3D

 20 19  0  0  0  0  0  0  0  0999 V2000
    2.6875   -1.0555    2.5571 C   0  0  0  0  0  0  0  0  0  0  0  0
    1.7305   -0.2546    1.8044 N   0  0  0  0  0  0  0  0  0  0  0  0
    0.5561   -0.8082    1.2993 C   0  0  0  0  0  0  0  0  0  0  0  0
    0.3366   -2.0486    1.5147 O   0  0  0  0  0  0  0  0  0  0  0  0
   -0.4409   -0.0749    0.5427 C   0  0  0  0  0  0  0  0  0  0  0  0
   -0.2554    1.1937    0.3006 C   0  0  0  0  0  0  0  0  0  0  0  0
   -1.5891   -0.7554    0.0867 N   0  0  0  0  0  0  0  0  0  0  0  0
   -2.6442   -0.2142   -0.6500 C   0  0  0  0  0  0  0  0  0  0  0  0
   -3.7961   -1.1198   -1.0467 C   0  0  0  0  0  0  0  0  0  0  0  0
   -2.7616    0.9604   -1.0356 O   0  0  0  0  0  0  0  0  0  0  0  0
    3.2799   -1.7197    1.9291 H   0  0  0  0  0  0  0  0  0  0  0  0
    2.0614   -1.6954    3.2421 H   0  0  0  0  0  0  0  0  0  0  0  0
    3.3061   -0.4198    3.2405 H   0  0  0  0  0  0  0  0  0  0  0  0
    1.9899    0.7398    1.6784 H   0  0  0  0  0  0  0  0  0  0  0  0
   -0.9286    1.8221   -0.2466 H   0  0  0  0  0  0  0  0  0  0  0  0
    0.6472    1.7281    0.6592 H   0  0  0  0  0  0  0  0  0  0  0  0
   -1.6823   -1.8059    0.3210 H   0  0  0  0  0  0  0  0  0  0  0  0
   -3.3422   -2.1286   -1.2722 H   0  0  0  0  0  0  0  0  0  0  0  0
   -4.2646   -0.7796   -1.9796 H   0  0  0  0  0  0  0  0  0  0  0  0
   -4.4968   -1.2159   -0.2042 H   0  0  0  0  0  0  0  0  0  0  0  0
  1  2  1  0
  1 11  1  0
  1 12  1  0
  1 13  1  0
  2  3  1  0
  2 14  1  0
  3  4  2  0
  3  5  1  0
  5  6  2  3
  5  7  1  0
  6 15  1  0
  6 16  1  0
  7  8  1  0
  7 17  1  0
  8  9  1  0
  8 10  2  0
  9 18  1  0
  9 19  1  0
  9 20  1  0
M  END

> <RosettaParamsInstructions>
M  ROOT 7
M  POLY_N_BB 7
M  POLY_CA_BB 5
M  POLY_C_BB 3
M  POLY_O_BB 4
M  POLY_IGNORE 1 10 9 14 11 12 13 18 19 20
M  POLY_UPPER 2
M  POLY_LOWER 8
M  POLY_CHG 0
M  POLY_PROPERTIES PROTEIN POLYMER ALPHA_AA ALIPHATIC
M  END

$$$$
DHA_new
     RDKit          3D

 20 19  0  0  0  0  0  0  0  0999 V2000
    2.6794   -1.0425    2.5662 C   0  0  0  0  0  0  0  0  0  0  0  0
    1.6522   -0.2129    1.9006 N   0  0  0  0  0  0  0  0  0  0  0  0
    0.5786   -0.8347    1.2906 C   0  0  0  0  0  0  0  0  0  0  0  0
    0.5048   -2.1109    1.3198 O   0  0  0  0  0  0  0  0  0  0  0  0
   -0.4934   -0.0729    0.6019 C   0  0  0  0  0  0  0  0  0  0  0  0
   -0.4184    1.2201    0.5725 C   0  0  0  0  0  0  0  0  0  0  0  0
   -1.5514   -0.7891    0.0068 N   0  0  0  0  0  0  0  0  0  0  0  0
   -2.6219   -0.1951   -0.6713 C   0  0  0  0  0  0  0  0  0  0  0  0
   -3.6711   -1.1536   -1.2472 C   0  0  0  0  0  0  0  0  0  0  0  0
   -2.8217    1.0029   -0.8606 O   0  0  0  0  0  0  0  0  0  0  0  0
    3.2278   -0.4627    3.3135 H   0  0  0  0  0  0  0  0  0  0  0  0
    3.3490   -1.4516    1.7970 H   0  0  0  0  0  0  0  0  0  0  0  0
    2.1170   -1.9078    3.0008 H   0  0  0  0  0  0  0  0  0  0  0  0
    1.8139    0.8089    1.9389 H   0  0  0  0  0  0  0  0  0  0  0  0
   -1.1446    1.8420    0.0997 H   0  0  0  0  0  0  0  0  0  0  0  0
    0.4258    1.7486    1.0498 H   0  0  0  0  0  0  0  0  0  0  0  0
   -1.5034   -1.8606    0.0974 H   0  0  0  0  0  0  0  0  0  0  0  0
   -4.6551   -0.6550   -1.2382 H   0  0  0  0  0  0  0  0  0  0  0  0
   -3.3323   -1.4969   -2.2241 H   0  0  0  0  0  0  0  0  0  0  0  0
   -3.7416   -2.0282   -0.5732 H   0  0  0  0  0  0  0  0  0  0  0  0
  1  2  1  0
  1 11  1  0
  1 12  1  0
  1 13  1  0
  2  3  1  0
  2 14  1  0
  3  4  2  0
  3  5  1  0
  5  6  2  3
  5  7  1  0
  6 15  1  0
  6 16  1  0
  7  8  1  0
  7 17  1  0
  8  9  1  0
  8 10  2  0
  9 18  1  0
  9 19  1  0
  9 20  1  0
M  END

> <RosettaParamsInstructions>
M  ROOT 7
M  POLY_N_BB 7
M  POLY_CA_BB 5
M  POLY_C_BB 3
M  POLY_O_BB 4
M  POLY_IGNORE 1 10 9 14 11 12 13 18 19 20
M  POLY_UPPER 2
M  POLY_LOWER 8
M  POLY_CHG 0
M  POLY_PROPERTIES PROTEIN POLYMER ALPHA_AA ALIPHATIC
M  END

$$$$
DHA_new
     RDKit          3D

 20 19  0  0  0  0  0  0  0  0999 V2000
    2.7082   -1.0445    2.5528 C   0  0  0  0  0  0  0  0  0  0  0  0
    1.6815   -0.2725    1.8453 N   0  0  0  0  0  0  0  0  0  0  0  0
    0.5487   -0.8796    1.2889 C   0  0  0  0  0  0  0  0  0  0  0  0
    0.3948   -2.1376    1.3940 O   0  0  0  0  0  0  0  0  0  0  0  0
   -0.4662   -0.0976    0.5867 C   0  0  0  0  0  0  0  0  0  0  0  0
   -0.3217    1.2111    0.4684 C   0  0  0  0  0  0  0  0  0  0  0  0
   -1.5666   -0.7840    0.0610 N   0  0  0  0  0  0  0  0  0  0  0  0
   -2.6424   -0.2482   -0.6383 C   0  0  0  0  0  0  0  0  0  0  0  0
   -3.7565   -1.1437   -1.1397 C   0  0  0  0  0  0  0  0  0  0  0  0
   -2.8088    0.9568   -0.9190 O   0  0  0  0  0  0  0  0  0  0  0  0
    2.3143   -2.0526    2.7834 H   0  0  0  0  0  0  0  0  0  0  0  0
    2.9406   -0.5347    3.5000 H   0  0  0  0  0  0  0  0  0  0  0  0
    3.5940   -1.1339    1.8784 H   0  0  0  0  0  0  0  0  0  0  0  0
    1.8445    0.7327    1.7843 H   0  0  0  0  0  0  0  0  0  0  0  0
    0.5381    1.7667    0.8761 H   0  0  0  0  0  0  0  0  0  0  0  0
   -1.0207    1.8658   -0.0331 H   0  0  0  0  0  0  0  0  0  0  0  0
   -1.5960   -1.8456    0.2073 H   0  0  0  0  0  0  0  0  0  0  0  0
   -4.6934   -0.6620   -0.7791 H   0  0  0  0  0  0  0  0  0  0  0  0
   -3.6963   -1.2030   -2.2433 H   0  0  0  0  0  0  0  0  0  0  0  0
   -3.6026   -2.1459   -0.7332 H   0  0  0  0  0  0  0  0  0  0  0  0
  1  2  1  0
  1 11  1  0
  1 12  1  0
  1 13  1  0
  2  3  1  0
  2 14  1  0
  3  4  2  0
  3  5  1  0
  5  6  2  3
  5  7  1  0
  6 15  1  0
  6 16  1  0
  7  8  1  0
  7 17  1  0
  8  9  1  0
  8 10  2  0
  9 18  1  0
  9 19  1  0
  9 20  1  0
M  END

> <RosettaParamsInstructions>
M  ROOT 7
M  POLY_N_BB 7
M  POLY_CA_BB 5
M  POLY_C_BB 3
M  POLY_O_BB 4
M  POLY_IGNORE 1 10 9 14 11 12 13 18 19 20
M  POLY_UPPER 2
M  POLY_LOWER 8
M  POLY_CHG 0
M  POLY_PROPERTIES PROTEIN POLYMER ALPHA_AA ALIPHATIC
M  END

$$$$
DHA_new
     RDKit          3D

 20 19  0  0  0  0  0  0  0  0999 V2000
    2.6757   -1.0388    2.5733 C   0  0  0  0  0  0  0  0  0  0  0  0
    1.6687   -0.2264    1.8694 N   0  0  0  0  0  0  0  0  0  0  0  0
    0.5560   -0.8423    1.2968 C   0  0  0  0  0  0  0  0  0  0  0  0
    0.4355   -2.1014    1.3964 O   0  0  0  0  0  0  0  0  0  0  0  0
   -0.4656   -0.0812    0.5911 C   0  0  0  0  0  0  0  0  0  0  0  0
   -0.3338    1.2286    0.4913 C   0  0  0  0  0  0  0  0  0  0  0  0
   -1.5471   -0.8094    0.0521 N   0  0  0  0  0  0  0  0  0  0  0  0
   -2.6233   -0.2579   -0.6573 C   0  0  0  0  0  0  0  0  0  0  0  0
   -3.7208   -1.1686   -1.1811 C   0  0  0  0  0  0  0  0  0  0  0  0
   -2.8052    0.9501   -0.9284 O   0  0  0  0  0  0  0  0  0  0  0  0
    3.6269   -0.4911    2.6822 H   0  0  0  0  0  0  0  0  0  0  0  0
    2.7950   -1.9614    1.9659 H   0  0  0  0  0  0  0  0  0  0  0  0
    2.3082   -1.3460    3.5671 H   0  0  0  0  0  0  0  0  0  0  0  0
    1.8471    0.7833    1.8378 H   0  0  0  0  0  0  0  0  0  0  0  0
    0.5114    1.7854    0.9142 H   0  0  0  0  0  0  0  0  0  0  0  0
   -1.0403    1.8722   -0.0126 H   0  0  0  0  0  0  0  0  0  0  0  0
   -1.5496   -1.8662    0.1939 H   0  0  0  0  0  0  0  0  0  0  0  0
   -3.9875   -0.8613   -2.2059 H   0  0  0  0  0  0  0  0  0  0  0  0
   -4.5918   -1.0182   -0.5077 H   0  0  0  0  0  0  0  0  0  0  0  0
   -3.3660   -2.2016   -1.1977 H   0  0  0  0  0  0  0  0  0  0  0  0
  1  2  1  0
  1 11  1  0
  1 12  1  0
  1 13  1  0
  2  3  1  0
  2 14  1  0
  3  4  2  0
  3  5  1  0
  5  6  2  3
  5  7  1  0
  6 15  1  0
  6 16  1  0
  7  8  1  0
  7 17  1  0
  8  9  1  0
  8 10  2  0
  9 18  1  0
  9 19  1  0
  9 20  1  0
M  END

> <RosettaParamsInstructions>
M  ROOT 7
M  POLY_N_BB 7
M  POLY_CA_BB 5
M  POLY_C_BB 3
M  POLY_O_BB 4
M  POLY_IGNORE 1 10 9 14 11 12 13 18 19 20
M  POLY_UPPER 2
M  POLY_LOWER 8
M  POLY_CHG 0
M  POLY_PROPERTIES PROTEIN POLYMER ALPHA_AA ALIPHATIC
M  END

$$$$
DHA_new
     RDKit          3D

 20 19  0  0  0  0  0  0  0  0999 V2000
    2.6645   -1.0490    2.5749 C   0  0  0  0  0  0  0  0  0  0  0  0
    1.7001   -0.2061    1.8698 N   0  0  0  0  0  0  0  0  0  0  0  0
    0.5715   -0.8259    1.3106 C   0  0  0  0  0  0  0  0  0  0  0  0
    0.4297   -2.0720    1.4338 O   0  0  0  0  0  0  0  0  0  0  0  0
   -0.4863   -0.0858    0.5676 C   0  0  0  0  0  0  0  0  0  0  0  0
   -0.3527    1.2013    0.4328 C   0  0  0  0  0  0  0  0  0  0  0  0
   -1.5776   -0.7972    0.0454 N   0  0  0  0  0  0  0  0  0  0  0  0
   -2.6291   -0.2432   -0.6631 C   0  0  0  0  0  0  0  0  0  0  0  0
   -3.7438   -1.1445   -1.1677 C   0  0  0  0  0  0  0  0  0  0  0  0
   -2.7631    0.9432   -0.9382 O   0  0  0  0  0  0  0  0  0  0  0  0
    3.6769   -0.6076    2.5589 H   0  0  0  0  0  0  0  0  0  0  0  0
    2.3125   -1.1514    3.6022 H   0  0  0  0  0  0  0  0  0  0  0  0
    2.7474   -2.0490    2.0974 H   0  0  0  0  0  0  0  0  0  0  0  0
    1.9234    0.8039    1.8335 H   0  0  0  0  0  0  0  0  0  0  0  0
   -1.0356    1.8547   -0.0760 H   0  0  0  0  0  0  0  0  0  0  0  0
    0.5259    1.7285    0.8608 H   0  0  0  0  0  0  0  0  0  0  0  0
   -1.6224   -1.8618    0.1954 H   0  0  0  0  0  0  0  0  0  0  0  0
   -3.7459   -2.0866   -0.5526 H   0  0  0  0  0  0  0  0  0  0  0  0
   -3.5029   -1.3890   -2.2141 H   0  0  0  0  0  0  0  0  0  0  0  0
   -4.6989   -0.6148   -1.0303 H   0  0  0  0  0  0  0  0  0  0  0  0
  1  2  1  0
  1 11  1  0
  1 12  1  0
  1 13  1  0
  2  3  1  0
  2 14  1  0
  3  4  2  0
  3  5  1  0
  5  6  2  3
  5  7  1  0
  6 15  1  0
  6 16  1  0
  7  8  1  0
  7 17  1  0
  8  9  1  0
  8 10  2  0
  9 18  1  0
  9 19  1  0
  9 20  1  0
M  END

> <RosettaParamsInstructions>
M  ROOT 7
M  POLY_N_BB 7
M  POLY_CA_BB 5
M  POLY_C_BB 3
M  POLY_O_BB 4
M  POLY_IGNORE 1 10 9 14 11 12 13 18 19 20
M  POLY_UPPER 2
M  POLY_LOWER 8
M  POLY_CHG 0
M  POLY_PROPERTIES PROTEIN POLYMER ALPHA_AA ALIPHATIC
M  END

$$$$
DHA_new
     RDKit          3D

 20 19  0  0  0  0  0  0  0  0999 V2000
    2.6747   -1.0508    2.5657 C   0  0  0  0  0  0  0  0  0  0  0  0
    1.6871   -0.2172    1.8545 N   0  0  0  0  0  0  0  0  0  0  0  0
    0.5656   -0.8447    1.3057 C   0  0  0  0  0  0  0  0  0  0  0  0
    0.4409   -2.0985    1.4394 O   0  0  0  0  0  0  0  0  0  0  0  0
   -0.4715   -0.0873    0.5783 C   0  0  0  0  0  0  0  0  0  0  0  0
   -0.3575    1.1942    0.4339 C   0  0  0  0  0  0  0  0  0  0  0  0
   -1.5744   -0.8085    0.0557 N   0  0  0  0  0  0  0  0  0  0  0  0
   -2.6263   -0.2302   -0.6509 C   0  0  0  0  0  0  0  0  0  0  0  0
   -3.7340   -1.1346   -1.1462 C   0  0  0  0  0  0  0  0  0  0  0  0
   -2.7768    0.9610   -0.9343 O   0  0  0  0  0  0  0  0  0  0  0  0
    3.0343   -1.7847    1.8283 H   0  0  0  0  0  0  0  0  0  0  0  0
    3.4896   -0.4391    2.9856 H   0  0  0  0  0  0  0  0  0  0  0  0
    2.1679   -1.5473    3.4219 H   0  0  0  0  0  0  0  0  0  0  0  0
    1.8825    0.7950    1.8018 H   0  0  0  0  0  0  0  0  0  0  0  0
    0.5117    1.7183    0.8530 H   0  0  0  0  0  0  0  0  0  0  0  0
   -1.0307    1.8560   -0.0663 H   0  0  0  0  0  0  0  0  0  0  0  0
   -1.5902   -1.8699    0.2209 H   0  0  0  0  0  0  0  0  0  0  0  0
   -3.3891   -2.1837   -1.1344 H   0  0  0  0  0  0  0  0  0  0  0  0
   -3.9245   -0.8445   -2.1955 H   0  0  0  0  0  0  0  0  0  0  0  0
   -4.5857   -1.0359   -0.4760 H   0  0  0  0  0  0  0  0  0  0  0  0
  1  2  1  0
  1 11  1  0
  1 12  1  0
  1 13  1  0
  2  3  1  0
  2 14  1  0
  3  4  2  0
  3  5  1  0
  5  6  2  3
  5  7  1  0
  6 15  1  0
  6 16  1  0
  7  8  1  0
  7 17  1  0
  8  9  1  0
  8 10  2  0
  9 18  1  0
  9 19  1  0
  9 20  1  0
M  END

> <RosettaParamsInstructions>
M  ROOT 7
M  POLY_N_BB 7
M  POLY_CA_BB 5
M  POLY_C_BB 3
M  POLY_O_BB 4
M  POLY_IGNORE 1 10 9 14 11 12 13 18 19 20
M  POLY_UPPER 2
M  POLY_LOWER 8
M  POLY_CHG 0
M  POLY_PROPERTIES PROTEIN POLYMER ALPHA_AA ALIPHATIC
M  END

$$$$
DHA_new
     RDKit          3D

 20 19  0  0  0  0  0  0  0  0999 V2000
    2.6646   -1.0596    2.5909 C   0  0  0  0  0  0  0  0  0  0  0  0
    1.6774   -0.2373    1.8815 N   0  0  0  0  0  0  0  0  0  0  0  0
    0.5616   -0.8339    1.3110 C   0  0  0  0  0  0  0  0  0  0  0  0
    0.4527   -2.0981    1.4382 O   0  0  0  0  0  0  0  0  0  0  0  0
   -0.4794   -0.0893    0.5816 C   0  0  0  0  0  0  0  0  0  0  0  0
   -0.3698    1.1941    0.4520 C   0  0  0  0  0  0  0  0  0  0  0  0
   -1.5584   -0.7987    0.0500 N   0  0  0  0  0  0  0  0  0  0  0  0
   -2.6207   -0.2442   -0.6632 C   0  0  0  0  0  0  0  0  0  0  0  0
   -3.7243   -1.1581   -1.1784 C   0  0  0  0  0  0  0  0  0  0  0  0
   -2.8054    0.9584   -0.9549 O   0  0  0  0  0  0  0  0  0  0  0  0
    2.1647   -1.7736    3.2685 H   0  0  0  0  0  0  0  0  0  0  0  0
    3.3530   -0.4125    3.1840 H   0  0  0  0  0  0  0  0  0  0  0  0
    3.2452   -1.5888    1.8084 H   0  0  0  0  0  0  0  0  0  0  0  0
    1.8541    0.7872    1.8308 H   0  0  0  0  0  0  0  0  0  0  0  0
    0.5040    1.7079    0.8916 H   0  0  0  0  0  0  0  0  0  0  0  0
   -1.0653    1.8486   -0.0593 H   0  0  0  0  0  0  0  0  0  0  0  0
   -1.5662   -1.8574    0.2059 H   0  0  0  0  0  0  0  0  0  0  0  0
   -4.6512   -0.7993   -0.7293 H   0  0  0  0  0  0  0  0  0  0  0  0
   -3.4942   -2.1847   -0.8874 H   0  0  0  0  0  0  0  0  0  0  0  0
   -3.7489   -1.0127   -2.2812 H   0  0  0  0  0  0  0  0  0  0  0  0
  1  2  1  0
  1 11  1  0
  1 12  1  0
  1 13  1  0
  2  3  1  0
  2 14  1  0
  3  4  2  0
  3  5  1  0
  5  6  2  3
  5  7  1  0
  6 15  1  0
  6 16  1  0
  7  8  1  0
  7 17  1  0
  8  9  1  0
  8 10  2  0
  9 18  1  0
  9 19  1  0
  9 20  1  0
M  END

> <RosettaParamsInstructions>
M  ROOT 7
M  POLY_N_BB 7
M  POLY_CA_BB 5
M  POLY_C_BB 3
M  POLY_O_BB 4
M  POLY_IGNORE 1 10 9 14 11 12 13 18 19 20
M  POLY_UPPER 2
M  POLY_LOWER 8
M  POLY_CHG 0
M  POLY_PROPERTIES PROTEIN POLYMER ALPHA_AA ALIPHATIC
M  END

$$$$
DHA_new
     RDKit          3D

 20 19  0  0  0  0  0  0  0  0999 V2000
    2.6024   -1.0643    2.6491 C   0  0  0  0  0  0  0  0  0  0  0  0
    1.6591   -0.1968    1.9032 N   0  0  0  0  0  0  0  0  0  0  0  0
    0.5495   -0.8223    1.3359 C   0  0  0  0  0  0  0  0  0  0  0  0
    0.3777   -2.0480    1.4606 O   0  0  0  0  0  0  0  0  0  0  0  0
   -0.4599   -0.0660    0.5702 C   0  0  0  0  0  0  0  0  0  0  0  0
   -0.3154    1.2184    0.4175 C   0  0  0  0  0  0  0  0  0  0  0  0
   -1.5446   -0.7691    0.0326 N   0  0  0  0  0  0  0  0  0  0  0  0
   -2.5831   -0.2416   -0.7081 C   0  0  0  0  0  0  0  0  0  0  0  0
   -3.6652   -1.1911   -1.1976 C   0  0  0  0  0  0  0  0  0  0  0  0
   -2.7696    0.9436   -1.0465 O   0  0  0  0  0  0  0  0  0  0  0  0
    2.1832   -1.2187    3.6619 H   0  0  0  0  0  0  0  0  0  0  0  0
    3.5804   -0.5624    2.7176 H   0  0  0  0  0  0  0  0  0  0  0  0
    2.6710   -1.9968    2.0580 H   0  0  0  0  0  0  0  0  0  0  0  0
    1.9041    0.8108    1.8654 H   0  0  0  0  0  0  0  0  0  0  0  0
   -1.0213    1.8032   -0.1285 H   0  0  0  0  0  0  0  0  0  0  0  0
    0.5622    1.7243    0.8642 H   0  0  0  0  0  0  0  0  0  0  0  0
   -1.5764   -1.8260    0.2120 H   0  0  0  0  0  0  0  0  0  0  0  0
   -3.9669   -0.8726   -2.2340 H   0  0  0  0  0  0  0  0  0  0  0  0
   -3.2782   -2.2099   -1.1803 H   0  0  0  0  0  0  0  0  0  0  0  0
   -4.5155   -1.0669   -0.5123 H   0  0  0  0  0  0  0  0  0  0  0  0
  1  2  1  0
  1 11  1  0
  1 12  1  0
  1 13  1  0
  2  3  1  0
  2 14  1  0
  3  4  2  0
  3  5  1  0
  5  6  2  3
  5  7  1  0
  6 15  1  0
  6 16  1  0
  7  8  1  0
  7 17  1  0
  8  9  1  0
  8 10  2  0
  9 18  1  0
  9 19  1  0
  9 20  1  0
M  END

> <RosettaParamsInstructions>
M  ROOT 7
M  POLY_N_BB 7
M  POLY_CA_BB 5
M  POLY_C_BB 3
M  POLY_O_BB 4
M  POLY_IGNORE 1 10 9 14 11 12 13 18 19 20
M  POLY_UPPER 2
M  POLY_LOWER 8
M  POLY_CHG 0
M  POLY_PROPERTIES PROTEIN POLYMER ALPHA_AA ALIPHATIC
M  END

$$$$
DHA_new
     RDKit          3D

 20 19  0  0  0  0  0  0  0  0999 V2000
    2.6668   -1.0335    2.5863 C   0  0  0  0  0  0  0  0  0  0  0  0
    1.7056   -0.2081    1.8156 N   0  0  0  0  0  0  0  0  0  0  0  0
    0.5475   -0.8127    1.3126 C   0  0  0  0  0  0  0  0  0  0  0  0
    0.3499   -2.0329    1.5242 O   0  0  0  0  0  0  0  0  0  0  0  0
   -0.4379   -0.0724    0.5505 C   0  0  0  0  0  0  0  0  0  0  0  0
   -0.2389    1.2060    0.3241 C   0  0  0  0  0  0  0  0  0  0  0  0
   -1.5698   -0.7688    0.0870 N   0  0  0  0  0  0  0  0  0  0  0  0
   -2.6415   -0.2842   -0.6565 C   0  0  0  0  0  0  0  0  0  0  0  0
   -3.7885   -1.1636   -1.0798 C   0  0  0  0  0  0  0  0  0  0  0  0
   -2.7258    0.8988   -1.0200 O   0  0  0  0  0  0  0  0  0  0  0  0
    2.6599   -2.0740    2.1597 H   0  0  0  0  0  0  0  0  0  0  0  0
    2.3030   -1.1315    3.6293 H   0  0  0  0  0  0  0  0  0  0  0  0
    3.6902   -0.6238    2.5109 H   0  0  0  0  0  0  0  0  0  0  0  0
    1.9911    0.7813    1.7161 H   0  0  0  0  0  0  0  0  0  0  0  0
   -0.9136    1.8402   -0.2316 H   0  0  0  0  0  0  0  0  0  0  0  0
    0.6413    1.6812    0.7021 H   0  0  0  0  0  0  0  0  0  0  0  0
   -1.6225   -1.8100    0.3342 H   0  0  0  0  0  0  0  0  0  0  0  0
   -3.5402   -2.2344   -0.9567 H   0  0  0  0  0  0  0  0  0  0  0  0
   -4.0355   -0.9548   -2.1385 H   0  0  0  0  0  0  0  0  0  0  0  0
   -4.6474   -0.8549   -0.4287 H   0  0  0  0  0  0  0  0  0  0  0  0
  1  2  1  0
  1 11  1  0
  1 12  1  0
  1 13  1  0
  2  3  1  0
  2 14  1  0
  3  4  2  0
  3  5  1  0
  5  6  2  3
  5  7  1  0
  6 15  1  0
  6 16  1  0
  7  8  1  0
  7 17  1  0
  8  9  1  0
  8 10  2  0
  9 18  1  0
  9 19  1  0
  9 20  1  0
M  END

> <RosettaParamsInstructions>
M  ROOT 7
M  POLY_N_BB 7
M  POLY_CA_BB 5
M  POLY_C_BB 3
M  POLY_O_BB 4
M  POLY_IGNORE 1 10 9 14 11 12 13 18 19 20
M  POLY_UPPER 2
M  POLY_LOWER 8
M  POLY_CHG 0
M  POLY_PROPERTIES PROTEIN POLYMER ALPHA_AA ALIPHATIC
M  END

$$$$
DHA_new
     RDKit          3D

 20 19  0  0  0  0  0  0  0  0999 V2000
    2.6502   -1.0886    2.5816 C   0  0  0  0  0  0  0  0  0  0  0  0
    1.7016   -0.2140    1.8717 N   0  0  0  0  0  0  0  0  0  0  0  0
    0.5630   -0.8154    1.3102 C   0  0  0  0  0  0  0  0  0  0  0  0
    0.4009   -2.0513    1.4327 O   0  0  0  0  0  0  0  0  0  0  0  0
   -0.4702   -0.0547    0.5708 C   0  0  0  0  0  0  0  0  0  0  0  0
   -0.3511    1.2404    0.4127 C   0  0  0  0  0  0  0  0  0  0  0  0
   -1.5716   -0.7639    0.0501 N   0  0  0  0  0  0  0  0  0  0  0  0
   -2.6335   -0.2175   -0.6683 C   0  0  0  0  0  0  0  0  0  0  0  0
   -3.7151   -1.1872   -1.1315 C   0  0  0  0  0  0  0  0  0  0  0  0
   -2.7889    0.9694   -0.9683 O   0  0  0  0  0  0  0  0  0  0  0  0
    2.1387   -2.0227    2.8902 H   0  0  0  0  0  0  0  0  0  0  0  0
    3.4810   -1.3793    1.8903 H   0  0  0  0  0  0  0  0  0  0  0  0
    3.0073   -0.5101    3.4468 H   0  0  0  0  0  0  0  0  0  0  0  0
    1.9361    0.8081    1.8293 H   0  0  0  0  0  0  0  0  0  0  0  0
   -1.0410    1.8570   -0.1002 H   0  0  0  0  0  0  0  0  0  0  0  0
    0.5268    1.7725    0.8336 H   0  0  0  0  0  0  0  0  0  0  0  0
   -1.5804   -1.8212    0.2310 H   0  0  0  0  0  0  0  0  0  0  0  0
   -4.6678   -0.6579   -1.2813 H   0  0  0  0  0  0  0  0  0  0  0  0
   -3.8335   -1.9538   -0.3570 H   0  0  0  0  0  0  0  0  0  0  0  0
   -3.3590   -1.5620   -2.1037 H   0  0  0  0  0  0  0  0  0  0  0  0
  1  2  1  0
  1 11  1  0
  1 12  1  0
  1 13  1  0
  2  3  1  0
  2 14  1  0
  3  4  2  0
  3  5  1  0
  5  6  2  3
  5  7  1  0
  6 15  1  0
  6 16  1  0
  7  8  1  0
  7 17  1  0
  8  9  1  0
  8 10  2  0
  9 18  1  0
  9 19  1  0
  9 20  1  0
M  END

> <RosettaParamsInstructions>
M  ROOT 7
M  POLY_N_BB 7
M  POLY_CA_BB 5
M  POLY_C_BB 3
M  POLY_O_BB 4
M  POLY_IGNORE 1 10 9 14 11 12 13 18 19 20
M  POLY_UPPER 2
M  POLY_LOWER 8
M  POLY_CHG 0
M  POLY_PROPERTIES PROTEIN POLYMER ALPHA_AA ALIPHATIC
M  END

$$$$
DHA_new
     RDKit          3D

 20 19  0  0  0  0  0  0  0  0999 V2000
    2.6682   -1.0778    2.5765 C   0  0  0  0  0  0  0  0  0  0  0  0
    1.7066   -0.2098    1.8714 N   0  0  0  0  0  0  0  0  0  0  0  0
    0.5772   -0.8105    1.3084 C   0  0  0  0  0  0  0  0  0  0  0  0
    0.4460   -2.0790    1.4391 O   0  0  0  0  0  0  0  0  0  0  0  0
   -0.4756   -0.0759    0.5719 C   0  0  0  0  0  0  0  0  0  0  0  0
   -0.3601    1.2161    0.4281 C   0  0  0  0  0  0  0  0  0  0  0  0
   -1.5695   -0.7831    0.0470 N   0  0  0  0  0  0  0  0  0  0  0  0
   -2.6295   -0.2405   -0.6625 C   0  0  0  0  0  0  0  0  0  0  0  0
   -3.7339   -1.1539   -1.1597 C   0  0  0  0  0  0  0  0  0  0  0  0
   -2.7680    0.9713   -0.9418 O   0  0  0  0  0  0  0  0  0  0  0  0
    3.2136   -0.4450    3.2873 H   0  0  0  0  0  0  0  0  0  0  0  0
    2.0963   -1.8603    3.1251 H   0  0  0  0  0  0  0  0  0  0  0  0
    3.3165   -1.5464    1.8025 H   0  0  0  0  0  0  0  0  0  0  0  0
    1.8907    0.8117    1.8121 H   0  0  0  0  0  0  0  0  0  0  0  0
   -1.0331    1.8659   -0.0722 H   0  0  0  0  0  0  0  0  0  0  0  0
    0.5141    1.7437    0.8536 H   0  0  0  0  0  0  0  0  0  0  0  0
   -1.5867   -1.8364    0.2092 H   0  0  0  0  0  0  0  0  0  0  0  0
   -3.2753   -2.1321   -1.3340 H   0  0  0  0  0  0  0  0  0  0  0  0
   -4.1480   -0.7577   -2.0887 H   0  0  0  0  0  0  0  0  0  0  0  0
   -4.4562   -1.2525   -0.3324 H   0  0  0  0  0  0  0  0  0  0  0  0
  1  2  1  0
  1 11  1  0
  1 12  1  0
  1 13  1  0
  2  3  1  0
  2 14  1  0
  3  4  2  0
  3  5  1  0
  5  6  2  3
  5  7  1  0
  6 15  1  0
  6 16  1  0
  7  8  1  0
  7 17  1  0
  8  9  1  0
  8 10  2  0
  9 18  1  0
  9 19  1  0
  9 20  1  0
M  END

> <RosettaParamsInstructions>
M  ROOT 7
M  POLY_N_BB 7
M  POLY_CA_BB 5
M  POLY_C_BB 3
M  POLY_O_BB 4
M  POLY_IGNORE 1 10 9 14 11 12 13 18 19 20
M  POLY_UPPER 2
M  POLY_LOWER 8
M  POLY_CHG 0
M  POLY_PROPERTIES PROTEIN POLYMER ALPHA_AA ALIPHATIC
M  END

$$$$
DHA_new
     RDKit          3D

 20 19  0  0  0  0  0  0  0  0999 V2000
    2.6571   -1.0954    2.5664 C   0  0  0  0  0  0  0  0  0  0  0  0
    1.6937   -0.2132    1.8641 N   0  0  0  0  0  0  0  0  0  0  0  0
    0.5625   -0.8167    1.2991 C   0  0  0  0  0  0  0  0  0  0  0  0
    0.4289   -2.0703    1.4197 O   0  0  0  0  0  0  0  0  0  0  0  0
   -0.4606   -0.0423    0.5790 C   0  0  0  0  0  0  0  0  0  0  0  0
   -0.2872    1.2533    0.4749 C   0  0  0  0  0  0  0  0  0  0  0  0
   -1.5592   -0.7560    0.0505 N   0  0  0  0  0  0  0  0  0  0  0  0
   -2.6457   -0.2230   -0.6684 C   0  0  0  0  0  0  0  0  0  0  0  0
   -3.7307   -1.1672   -1.1523 C   0  0  0  0  0  0  0  0  0  0  0  0
   -2.8420    0.9657   -0.9713 O   0  0  0  0  0  0  0  0  0  0  0  0
    2.6849   -2.0249    1.9915 H   0  0  0  0  0  0  0  0  0  0  0  0
    3.6515   -0.5895    2.5911 H   0  0  0  0  0  0  0  0  0  0  0  0
    2.2747   -1.2499    3.5766 H   0  0  0  0  0  0  0  0  0  0  0  0
    1.9291    0.8152    1.8386 H   0  0  0  0  0  0  0  0  0  0  0  0
   -1.0325    1.8456   -0.0541 H   0  0  0  0  0  0  0  0  0  0  0  0
    0.5557    1.7631    0.8864 H   0  0  0  0  0  0  0  0  0  0  0  0
   -1.5582   -1.8124    0.2185 H   0  0  0  0  0  0  0  0  0  0  0  0
   -3.3343   -2.2103   -1.1784 H   0  0  0  0  0  0  0  0  0  0  0  0
   -4.5651   -1.1580   -0.4264 H   0  0  0  0  0  0  0  0  0  0  0  0
   -4.0290   -0.8658   -2.1645 H   0  0  0  0  0  0  0  0  0  0  0  0
  1  2  1  0
  1 11  1  0
  1 12  1  0
  1 13  1  0
  2  3  1  0
  2 14  1  0
  3  4  2  0
  3  5  1  0
  5  6  2  3
  5  7  1  0
  6 15  1  0
  6 16  1  0
  7  8  1  0
  7 17  1  0
  8  9  1  0
  8 10  2  0
  9 18  1  0
  9 19  1  0
  9 20  1  0
M  END

> <RosettaParamsInstructions>
M  ROOT 7
M  POLY_N_BB 7
M  POLY_CA_BB 5
M  POLY_C_BB 3
M  POLY_O_BB 4
M  POLY_IGNORE 1 10 9 14 11 12 13 18 19 20
M  POLY_UPPER 2
M  POLY_LOWER 8
M  POLY_CHG 0
M  POLY_PROPERTIES PROTEIN POLYMER ALPHA_AA ALIPHATIC
M  END

$$$$
DHA_new
     RDKit          3D

 20 19  0  0  0  0  0  0  0  0999 V2000
    2.6662   -1.0334    2.5700 C   0  0  0  0  0  0  0  0  0  0  0  0
    1.6599   -0.2295    1.8562 N   0  0  0  0  0  0  0  0  0  0  0  0
    0.5501   -0.8571    1.2995 C   0  0  0  0  0  0  0  0  0  0  0  0
    0.4357   -2.1113    1.4233 O   0  0  0  0  0  0  0  0  0  0  0  0
   -0.4746   -0.0802    0.5790 C   0  0  0  0  0  0  0  0  0  0  0  0
   -0.3663    1.2069    0.4466 C   0  0  0  0  0  0  0  0  0  0  0  0
   -1.5694   -0.8033    0.0455 N   0  0  0  0  0  0  0  0  0  0  0  0
   -2.6152   -0.2154   -0.6587 C   0  0  0  0  0  0  0  0  0  0  0  0
   -3.7115   -1.1329   -1.1634 C   0  0  0  0  0  0  0  0  0  0  0  0
   -2.7829    0.9758   -0.9387 O   0  0  0  0  0  0  0  0  0  0  0  0
    2.1673   -1.8846    3.1009 H   0  0  0  0  0  0  0  0  0  0  0  0
    3.2136   -0.4429    3.3134 H   0  0  0  0  0  0  0  0  0  0  0  0
    3.3728   -1.4299    1.8282 H   0  0  0  0  0  0  0  0  0  0  0  0
    1.8704    0.7766    1.8266 H   0  0  0  0  0  0  0  0  0  0  0  0
    0.5077    1.7116    0.8834 H   0  0  0  0  0  0  0  0  0  0  0  0
   -1.0660    1.8234   -0.0585 H   0  0  0  0  0  0  0  0  0  0  0  0
   -1.5866   -1.8839    0.2000 H   0  0  0  0  0  0  0  0  0  0  0  0
   -3.3460   -2.1760   -1.2139 H   0  0  0  0  0  0  0  0  0  0  0  0
   -4.5287   -1.0534   -0.4324 H   0  0  0  0  0  0  0  0  0  0  0  0
   -4.0032   -0.8127   -2.1660 H   0  0  0  0  0  0  0  0  0  0  0  0
  1  2  1  0
  1 11  1  0
  1 12  1  0
  1 13  1  0
  2  3  1  0
  2 14  1  0
  3  4  2  0
  3  5  1  0
  5  6  2  3
  5  7  1  0
  6 15  1  0
  6 16  1  0
  7  8  1  0
  7 17  1  0
  8  9  1  0
  8 10  2  0
  9 18  1  0
  9 19  1  0
  9 20  1  0
M  END

> <RosettaParamsInstructions>
M  ROOT 7
M  POLY_N_BB 7
M  POLY_CA_BB 5
M  POLY_C_BB 3
M  POLY_O_BB 4
M  POLY_IGNORE 1 10 9 14 11 12 13 18 19 20
M  POLY_UPPER 2
M  POLY_LOWER 8
M  POLY_CHG 0
M  POLY_PROPERTIES PROTEIN POLYMER ALPHA_AA ALIPHATIC
M  END

$$$$
DHA_new
     RDKit          3D

 20 19  0  0  0  0  0  0  0  0999 V2000
    2.7177   -1.0670    2.5055 C   0  0  0  0  0  0  0  0  0  0  0  0
    1.6980   -0.2118    1.8534 N   0  0  0  0  0  0  0  0  0  0  0  0
    0.5867   -0.8137    1.2725 C   0  0  0  0  0  0  0  0  0  0  0  0
    0.4750   -2.0724    1.3157 O   0  0  0  0  0  0  0  0  0  0  0  0
   -0.4643   -0.0692    0.6119 C   0  0  0  0  0  0  0  0  0  0  0  0
   -0.3923    1.2312    0.5426 C   0  0  0  0  0  0  0  0  0  0  0  0
   -1.5728   -0.7976    0.0435 N   0  0  0  0  0  0  0  0  0  0  0  0
   -2.6637   -0.2603   -0.6221 C   0  0  0  0  0  0  0  0  0  0  0  0
   -3.7375   -1.1589   -1.1564 C   0  0  0  0  0  0  0  0  0  0  0  0
   -2.8266    0.9477   -0.8171 O   0  0  0  0  0  0  0  0  0  0  0  0
    3.7042   -0.5960    2.3652 H   0  0  0  0  0  0  0  0  0  0  0  0
    2.6826   -2.0757    2.0643 H   0  0  0  0  0  0  0  0  0  0  0  0
    2.5162   -1.1489    3.5938 H   0  0  0  0  0  0  0  0  0  0  0  0
    1.8719    0.8066    1.8659 H   0  0  0  0  0  0  0  0  0  0  0  0
   -1.1219    1.8936    0.0717 H   0  0  0  0  0  0  0  0  0  0  0  0
    0.4863    1.7160    1.0010 H   0  0  0  0  0  0  0  0  0  0  0  0
   -1.5456   -1.8592    0.1490 H   0  0  0  0  0  0  0  0  0  0  0  0
   -3.7704   -2.0994   -0.5792 H   0  0  0  0  0  0  0  0  0  0  0  0
   -4.7282   -0.6675   -1.1128 H   0  0  0  0  0  0  0  0  0  0  0  0
   -3.5219   -1.3497   -2.2276 H   0  0  0  0  0  0  0  0  0  0  0  0
  1  2  1  0
  1 11  1  0
  1 12  1  0
  1 13  1  0
  2  3  1  0
  2 14  1  0
  3  4  2  0
  3  5  1  0
  5  6  2  3
  5  7  1  0
  6 15  1  0
  6 16  1  0
  7  8  1  0
  7 17  1  0
  8  9  1  0
  8 10  2  0
  9 18  1  0
  9 19  1  0
  9 20  1  0
M  END

> <RosettaParamsInstructions>
M  ROOT 7
M  POLY_N_BB 7
M  POLY_CA_BB 5
M  POLY_C_BB 3
M  POLY_O_BB 4
M  POLY_IGNORE 1 10 9 14 11 12 13 18 19 20
M  POLY_UPPER 2
M  POLY_LOWER 8
M  POLY_CHG 0
M  POLY_PROPERTIES PROTEIN POLYMER ALPHA_AA ALIPHATIC
M  END

$$$$
DHA_new
     RDKit          3D

 20 19  0  0  0  0  0  0  0  0999 V2000
    2.6679   -1.0408    2.5934 C   0  0  0  0  0  0  0  0  0  0  0  0
    1.6837   -0.2317    1.8739 N   0  0  0  0  0  0  0  0  0  0  0  0
    0.5571   -0.8366    1.3126 C   0  0  0  0  0  0  0  0  0  0  0  0
    0.4082   -2.1017    1.4414 O   0  0  0  0  0  0  0  0  0  0  0  0
   -0.4474   -0.0652    0.5875 C   0  0  0  0  0  0  0  0  0  0  0  0
   -0.3252    1.2222    0.4391 C   0  0  0  0  0  0  0  0  0  0  0  0
   -1.5540   -0.7565    0.0527 N   0  0  0  0  0  0  0  0  0  0  0  0
   -2.6433   -0.2620   -0.6749 C   0  0  0  0  0  0  0  0  0  0  0  0
   -3.7402   -1.1564   -1.1691 C   0  0  0  0  0  0  0  0  0  0  0  0
   -2.7647    0.9395   -0.9524 O   0  0  0  0  0  0  0  0  0  0  0  0
    3.6984   -0.8497    2.2066 H   0  0  0  0  0  0  0  0  0  0  0  0
    2.6737   -0.8177    3.6781 H   0  0  0  0  0  0  0  0  0  0  0  0
    2.4594   -2.1222    2.3957 H   0  0  0  0  0  0  0  0  0  0  0  0
    1.8746    0.7674    1.8155 H   0  0  0  0  0  0  0  0  0  0  0  0
    0.5627    1.7087    0.8799 H   0  0  0  0  0  0  0  0  0  0  0  0
   -1.0146    1.8847   -0.0813 H   0  0  0  0  0  0  0  0  0  0  0  0
   -1.5779   -1.8136    0.2197 H   0  0  0  0  0  0  0  0  0  0  0  0
   -4.7174   -0.7653   -0.7928 H   0  0  0  0  0  0  0  0  0  0  0  0
   -3.6237   -2.1808   -0.8064 H   0  0  0  0  0  0  0  0  0  0  0  0
   -3.7836   -1.1746   -2.2783 H   0  0  0  0  0  0  0  0  0  0  0  0
  1  2  1  0
  1 11  1  0
  1 12  1  0
  1 13  1  0
  2  3  1  0
  2 14  1  0
  3  4  2  0
  3  5  1  0
  5  6  2  3
  5  7  1  0
  6 15  1  0
  6 16  1  0
  7  8  1  0
  7 17  1  0
  8  9  1  0
  8 10  2  0
  9 18  1  0
  9 19  1  0
  9 20  1  0
M  END

> <RosettaParamsInstructions>
M  ROOT 7
M  POLY_N_BB 7
M  POLY_CA_BB 5
M  POLY_C_BB 3
M  POLY_O_BB 4
M  POLY_IGNORE 1 10 9 14 11 12 13 18 19 20
M  POLY_UPPER 2
M  POLY_LOWER 8
M  POLY_CHG 0
M  POLY_PROPERTIES PROTEIN POLYMER ALPHA_AA ALIPHATIC
M  END

$$$$
DHA_new
     RDKit          3D

 20 19  0  0  0  0  0  0  0  0999 V2000
    2.6552   -1.0812    2.5593 C   0  0  0  0  0  0  0  0  0  0  0  0
    1.7330   -0.2116    1.8132 N   0  0  0  0  0  0  0  0  0  0  0  0
    0.5704   -0.8120    1.3085 C   0  0  0  0  0  0  0  0  0  0  0  0
    0.3542   -2.0483    1.5035 O   0  0  0  0  0  0  0  0  0  0  0  0
   -0.4182   -0.0680    0.5571 C   0  0  0  0  0  0  0  0  0  0  0  0
   -0.2491    1.2064    0.3255 C   0  0  0  0  0  0  0  0  0  0  0  0
   -1.5643   -0.7387    0.0798 N   0  0  0  0  0  0  0  0  0  0  0  0
   -2.6390   -0.2448   -0.6561 C   0  0  0  0  0  0  0  0  0  0  0  0
   -3.7673   -1.1547   -1.0618 C   0  0  0  0  0  0  0  0  0  0  0  0
   -2.7663    0.9364   -1.0316 O   0  0  0  0  0  0  0  0  0  0  0  0
    2.6629   -2.1032    2.1298 H   0  0  0  0  0  0  0  0  0  0  0  0
    2.2585   -1.1657    3.5911 H   0  0  0  0  0  0  0  0  0  0  0  0
    3.6578   -0.6230    2.6236 H   0  0  0  0  0  0  0  0  0  0  0  0
    1.9633    0.7854    1.6877 H   0  0  0  0  0  0  0  0  0  0  0  0
    0.6464    1.7327    0.6979 H   0  0  0  0  0  0  0  0  0  0  0  0
   -0.9409    1.8454   -0.2307 H   0  0  0  0  0  0  0  0  0  0  0  0
   -1.6090   -1.7721    0.3199 H   0  0  0  0  0  0  0  0  0  0  0  0
   -4.1734   -0.8788   -2.0457 H   0  0  0  0  0  0  0  0  0  0  0  0
   -4.6116   -1.0863   -0.3407 H   0  0  0  0  0  0  0  0  0  0  0  0
   -3.3690   -2.1703   -1.0893 H   0  0  0  0  0  0  0  0  0  0  0  0
  1  2  1  0
  1 11  1  0
  1 12  1  0
  1 13  1  0
  2  3  1  0
  2 14  1  0
  3  4  2  0
  3  5  1  0
  5  6  2  3
  5  7  1  0
  6 15  1  0
  6 16  1  0
  7  8  1  0
  7 17  1  0
  8  9  1  0
  8 10  2  0
  9 18  1  0
  9 19  1  0
  9 20  1  0
M  END

> <RosettaParamsInstructions>
M  ROOT 7
M  POLY_N_BB 7
M  POLY_CA_BB 5
M  POLY_C_BB 3
M  POLY_O_BB 4
M  POLY_IGNORE 1 10 9 14 11 12 13 18 19 20
M  POLY_UPPER 2
M  POLY_LOWER 8
M  POLY_CHG 0
M  POLY_PROPERTIES PROTEIN POLYMER ALPHA_AA ALIPHATIC
M  END

$$$$
DHA_new
     RDKit          3D

 20 19  0  0  0  0  0  0  0  0999 V2000
    2.7309   -1.0620    2.5288 C   0  0  0  0  0  0  0  0  0  0  0  0
    1.7017   -0.2745    1.8528 N   0  0  0  0  0  0  0  0  0  0  0  0
    0.5700   -0.8453    1.2732 C   0  0  0  0  0  0  0  0  0  0  0  0
    0.4522   -2.1029    1.3495 O   0  0  0  0  0  0  0  0  0  0  0  0
   -0.4867   -0.0648    0.5822 C   0  0  0  0  0  0  0  0  0  0  0  0
   -0.3759    1.2429    0.4961 C   0  0  0  0  0  0  0  0  0  0  0  0
   -1.5648   -0.7576    0.0471 N   0  0  0  0  0  0  0  0  0  0  0  0
   -2.6641   -0.2551   -0.6365 C   0  0  0  0  0  0  0  0  0  0  0  0
   -3.7599   -1.1618   -1.1573 C   0  0  0  0  0  0  0  0  0  0  0  0
   -2.8064    0.9686   -0.8572 O   0  0  0  0  0  0  0  0  0  0  0  0
    3.7321   -0.8688    2.1108 H   0  0  0  0  0  0  0  0  0  0  0  0
    2.6744   -0.7695    3.5995 H   0  0  0  0  0  0  0  0  0  0  0  0
    2.4387   -2.1199    2.4645 H   0  0  0  0  0  0  0  0  0  0  0  0
    1.8986    0.7488    1.8482 H   0  0  0  0  0  0  0  0  0  0  0  0
    0.4945    1.7673    0.9320 H   0  0  0  0  0  0  0  0  0  0  0  0
   -1.0897    1.8707    0.0178 H   0  0  0  0  0  0  0  0  0  0  0  0
   -1.5595   -1.8258    0.1720 H   0  0  0  0  0  0  0  0  0  0  0  0
   -3.5009   -2.1920   -0.8709 H   0  0  0  0  0  0  0  0  0  0  0  0
   -4.7390   -0.8618   -0.7600 H   0  0  0  0  0  0  0  0  0  0  0  0
   -3.7527   -1.0885   -2.2518 H   0  0  0  0  0  0  0  0  0  0  0  0
  1  2  1  0
  1 11  1  0
  1 12  1  0
  1 13  1  0
  2  3  1  0
  2 14  1  0
  3  4  2  0
  3  5  1  0
  5  6  2  3
  5  7  1  0
  6 15  1  0
  6 16  1  0
  7  8  1  0
  7 17  1  0
  8  9  1  0
  8 10  2  0
  9 18  1  0
  9 19  1  0
  9 20  1  0
M  END

> <RosettaParamsInstructions>
M  ROOT 7
M  POLY_N_BB 7
M  POLY_CA_BB 5
M  POLY_C_BB 3
M  POLY_O_BB 4
M  POLY_IGNORE 1 10 9 14 11 12 13 18 19 20
M  POLY_UPPER 2
M  POLY_LOWER 8
M  POLY_CHG 0
M  POLY_PROPERTIES PROTEIN POLYMER ALPHA_AA ALIPHATIC
M  END

$$$$
DHA_new
     RDKit          3D

 20 19  0  0  0  0  0  0  0  0999 V2000
    2.6669   -1.0660    2.5680 C   0  0  0  0  0  0  0  0  0  0  0  0
    1.7036   -0.2173    1.8617 N   0  0  0  0  0  0  0  0  0  0  0  0
    0.5789   -0.8369    1.3088 C   0  0  0  0  0  0  0  0  0  0  0  0
    0.4015   -2.0941    1.4172 O   0  0  0  0  0  0  0  0  0  0  0  0
   -0.4599   -0.0574    0.5701 C   0  0  0  0  0  0  0  0  0  0  0  0
   -0.3333    1.2274    0.4273 C   0  0  0  0  0  0  0  0  0  0  0  0
   -1.5712   -0.7642    0.0398 N   0  0  0  0  0  0  0  0  0  0  0  0
   -2.6400   -0.2355   -0.6741 C   0  0  0  0  0  0  0  0  0  0  0  0
   -3.7171   -1.1767   -1.1450 C   0  0  0  0  0  0  0  0  0  0  0  0
   -2.7255    0.9847   -0.9299 O   0  0  0  0  0  0  0  0  0  0  0  0
    2.7186   -2.0359    2.0291 H   0  0  0  0  0  0  0  0  0  0  0  0
    3.6590   -0.5949    2.6401 H   0  0  0  0  0  0  0  0  0  0  0  0
    2.2940   -1.1898    3.6179 H   0  0  0  0  0  0  0  0  0  0  0  0
    1.9080    0.7923    1.8106 H   0  0  0  0  0  0  0  0  0  0  0  0
    0.5394    1.7357    0.8517 H   0  0  0  0  0  0  0  0  0  0  0  0
   -1.0140    1.8748   -0.0798 H   0  0  0  0  0  0  0  0  0  0  0  0
   -1.6157   -1.8298    0.1936 H   0  0  0  0  0  0  0  0  0  0  0  0
   -4.6288   -0.5698   -1.3013 H   0  0  0  0  0  0  0  0  0  0  0  0
   -3.9354   -1.9364   -0.3661 H   0  0  0  0  0  0  0  0  0  0  0  0
   -3.4354   -1.6623   -2.0989 H   0  0  0  0  0  0  0  0  0  0  0  0
  1  2  1  0
  1 11  1  0
  1 12  1  0
  1 13  1  0
  2  3  1  0
  2 14  1  0
  3  4  2  0
  3  5  1  0
  5  6  2  3
  5  7  1  0
  6 15  1  0
  6 16  1  0
  7  8  1  0
  7 17  1  0
  8  9  1  0
  8 10  2  0
  9 18  1  0
  9 19  1  0
  9 20  1  0
M  END

> <RosettaParamsInstructions>
M  ROOT 7
M  POLY_N_BB 7
M  POLY_CA_BB 5
M  POLY_C_BB 3
M  POLY_O_BB 4
M  POLY_IGNORE 1 10 9 14 11 12 13 18 19 20
M  POLY_UPPER 2
M  POLY_LOWER 8
M  POLY_CHG 0
M  POLY_PROPERTIES PROTEIN POLYMER ALPHA_AA ALIPHATIC
M  END

$$$$
DHA_new
     RDKit          3D

 20 19  0  0  0  0  0  0  0  0999 V2000
    2.6340   -1.0556    2.6517 C   0  0  0  0  0  0  0  0  0  0  0  0
    1.7034   -0.2334    1.8786 N   0  0  0  0  0  0  0  0  0  0  0  0
    0.5555   -0.7974    1.3338 C   0  0  0  0  0  0  0  0  0  0  0  0
    0.3343   -2.0423    1.5231 O   0  0  0  0  0  0  0  0  0  0  0  0
   -0.4558   -0.0603    0.5341 C   0  0  0  0  0  0  0  0  0  0  0  0
   -0.2709    1.2192    0.3140 C   0  0  0  0  0  0  0  0  0  0  0  0
   -1.5753   -0.7672    0.0434 N   0  0  0  0  0  0  0  0  0  0  0  0
   -2.6062   -0.2403   -0.7137 C   0  0  0  0  0  0  0  0  0  0  0  0
   -3.7304   -1.1500   -1.1547 C   0  0  0  0  0  0  0  0  0  0  0  0
   -2.7143    0.9406   -1.0846 O   0  0  0  0  0  0  0  0  0  0  0  0
    3.1750   -1.7363    1.9647 H   0  0  0  0  0  0  0  0  0  0  0  0
    3.3161   -0.4091    3.2373 H   0  0  0  0  0  0  0  0  0  0  0  0
    2.0567   -1.6718    3.3793 H   0  0  0  0  0  0  0  0  0  0  0  0
    1.9299    0.7688    1.7554 H   0  0  0  0  0  0  0  0  0  0  0  0
    0.6226    1.7368    0.7177 H   0  0  0  0  0  0  0  0  0  0  0  0
   -0.9531    1.8223   -0.2528 H   0  0  0  0  0  0  0  0  0  0  0  0
   -1.6304   -1.8088    0.2800 H   0  0  0  0  0  0  0  0  0  0  0  0
   -4.2246   -0.7817   -2.0552 H   0  0  0  0  0  0  0  0  0  0  0  0
   -3.2984   -2.1685   -1.2753 H   0  0  0  0  0  0  0  0  0  0  0  0
   -4.4744   -1.2173   -0.3359 H   0  0  0  0  0  0  0  0  0  0  0  0
  1  2  1  0
  1 11  1  0
  1 12  1  0
  1 13  1  0
  2  3  1  0
  2 14  1  0
  3  4  2  0
  3  5  1  0
  5  6  2  3
  5  7  1  0
  6 15  1  0
  6 16  1  0
  7  8  1  0
  7 17  1  0
  8  9  1  0
  8 10  2  0
  9 18  1  0
  9 19  1  0
  9 20  1  0
M  END

> <RosettaParamsInstructions>
M  ROOT 7
M  POLY_N_BB 7
M  POLY_CA_BB 5
M  POLY_C_BB 3
M  POLY_O_BB 4
M  POLY_IGNORE 1 10 9 14 11 12 13 18 19 20
M  POLY_UPPER 2
M  POLY_LOWER 8
M  POLY_CHG 0
M  POLY_PROPERTIES PROTEIN POLYMER ALPHA_AA ALIPHATIC
M  END

$$$$
DHA_new
     RDKit          3D

 20 19  0  0  0  0  0  0  0  0999 V2000
    2.6888   -1.0651    2.5203 C   0  0  0  0  0  0  0  0  0  0  0  0
    1.6850   -0.2160    1.8638 N   0  0  0  0  0  0  0  0  0  0  0  0
    0.5888   -0.8327    1.2850 C   0  0  0  0  0  0  0  0  0  0  0  0
    0.4615   -2.0850    1.3235 O   0  0  0  0  0  0  0  0  0  0  0  0
   -0.4728   -0.0751    0.6033 C   0  0  0  0  0  0  0  0  0  0  0  0
   -0.3797    1.2320    0.5401 C   0  0  0  0  0  0  0  0  0  0  0  0
   -1.5403   -0.7990    0.0507 N   0  0  0  0  0  0  0  0  0  0  0  0
   -2.6257   -0.2397   -0.6270 C   0  0  0  0  0  0  0  0  0  0  0  0
   -3.7056   -1.1488   -1.1701 C   0  0  0  0  0  0  0  0  0  0  0  0
   -2.8326    0.9749   -0.8554 O   0  0  0  0  0  0  0  0  0  0  0  0
    2.1330   -1.8798    3.0105 H   0  0  0  0  0  0  0  0  0  0  0  0
    3.3474   -1.4326    1.6999 H   0  0  0  0  0  0  0  0  0  0  0  0
    3.2896   -0.5142    3.2471 H   0  0  0  0  0  0  0  0  0  0  0  0
    1.8732    0.7859    1.8830 H   0  0  0  0  0  0  0  0  0  0  0  0
   -1.0854    1.8795    0.0740 H   0  0  0  0  0  0  0  0  0  0  0  0
    0.4703    1.7538    0.9849 H   0  0  0  0  0  0  0  0  0  0  0  0
   -1.5549   -1.8657    0.1377 H   0  0  0  0  0  0  0  0  0  0  0  0
   -3.6661   -2.1279   -0.6399 H   0  0  0  0  0  0  0  0  0  0  0  0
   -4.6811   -0.6846   -0.9474 H   0  0  0  0  0  0  0  0  0  0  0  0
   -3.6000   -1.3119   -2.2430 H   0  0  0  0  0  0  0  0  0  0  0  0
  1  2  1  0
  1 11  1  0
  1 12  1  0
  1 13  1  0
  2  3  1  0
  2 14  1  0
  3  4  2  0
  3  5  1  0
  5  6  2  3
  5  7  1  0
  6 15  1  0
  6 16  1  0
  7  8  1  0
  7 17  1  0
  8  9  1  0
  8 10  2  0
  9 18  1  0
  9 19  1  0
  9 20  1  0
M  END

> <RosettaParamsInstructions>
M  ROOT 7
M  POLY_N_BB 7
M  POLY_CA_BB 5
M  POLY_C_BB 3
M  POLY_O_BB 4
M  POLY_IGNORE 1 10 9 14 11 12 13 18 19 20
M  POLY_UPPER 2
M  POLY_LOWER 8
M  POLY_CHG 0
M  POLY_PROPERTIES PROTEIN POLYMER ALPHA_AA ALIPHATIC
M  END

$$$$
DHA_new
     RDKit          3D

 20 19  0  0  0  0  0  0  0  0999 V2000
    2.6484   -1.0714    2.5922 C   0  0  0  0  0  0  0  0  0  0  0  0
    1.6715   -0.2381    1.8632 N   0  0  0  0  0  0  0  0  0  0  0  0
    0.5341   -0.8324    1.2961 C   0  0  0  0  0  0  0  0  0  0  0  0
    0.3826   -2.0852    1.4319 O   0  0  0  0  0  0  0  0  0  0  0  0
   -0.4595   -0.0455    0.5656 C   0  0  0  0  0  0  0  0  0  0  0  0
   -0.3097    1.2448    0.4220 C   0  0  0  0  0  0  0  0  0  0  0  0
   -1.5627   -0.7507    0.0387 N   0  0  0  0  0  0  0  0  0  0  0  0
   -2.6368   -0.2472   -0.6884 C   0  0  0  0  0  0  0  0  0  0  0  0
   -3.7221   -1.2006   -1.1599 C   0  0  0  0  0  0  0  0  0  0  0  0
   -2.7449    0.9528   -0.9685 O   0  0  0  0  0  0  0  0  0  0  0  0
    2.1859   -2.0211    2.9031 H   0  0  0  0  0  0  0  0  0  0  0  0
    3.0626   -0.4836    3.4351 H   0  0  0  0  0  0  0  0  0  0  0  0
    3.4790   -1.2988    1.9052 H   0  0  0  0  0  0  0  0  0  0  0  0
    1.9059    0.7664    1.8212 H   0  0  0  0  0  0  0  0  0  0  0  0
    0.5654    1.7206    0.8549 H   0  0  0  0  0  0  0  0  0  0  0  0
   -0.9846    1.8969   -0.0954 H   0  0  0  0  0  0  0  0  0  0  0  0
   -1.5858   -1.8091    0.2156 H   0  0  0  0  0  0  0  0  0  0  0  0
   -3.3228   -2.1966   -1.3386 H   0  0  0  0  0  0  0  0  0  0  0  0
   -4.2460   -0.7547   -2.0288 H   0  0  0  0  0  0  0  0  0  0  0  0
   -4.4671   -1.1988   -0.3242 H   0  0  0  0  0  0  0  0  0  0  0  0
  1  2  1  0
  1 11  1  0
  1 12  1  0
  1 13  1  0
  2  3  1  0
  2 14  1  0
  3  4  2  0
  3  5  1  0
  5  6  2  3
  5  7  1  0
  6 15  1  0
  6 16  1  0
  7  8  1  0
  7 17  1  0
  8  9  1  0
  8 10  2  0
  9 18  1  0
  9 19  1  0
  9 20  1  0
M  END

> <RosettaParamsInstructions>
M  ROOT 7
M  POLY_N_BB 7
M  POLY_CA_BB 5
M  POLY_C_BB 3
M  POLY_O_BB 4
M  POLY_IGNORE 1 10 9 14 11 12 13 18 19 20
M  POLY_UPPER 2
M  POLY_LOWER 8
M  POLY_CHG 0
M  POLY_PROPERTIES PROTEIN POLYMER ALPHA_AA ALIPHATIC
M  END

$$$$
DHA_new
     RDKit          3D

 20 19  0  0  0  0  0  0  0  0999 V2000
    2.6795   -1.0686    2.5795 C   0  0  0  0  0  0  0  0  0  0  0  0
    1.7068   -0.2490    1.8758 N   0  0  0  0  0  0  0  0  0  0  0  0
    0.5686   -0.8304    1.3055 C   0  0  0  0  0  0  0  0  0  0  0  0
    0.4156   -2.0822    1.4217 O   0  0  0  0  0  0  0  0  0  0  0  0
   -0.4763   -0.0861    0.5720 C   0  0  0  0  0  0  0  0  0  0  0  0
   -0.3395    1.2012    0.4405 C   0  0  0  0  0  0  0  0  0  0  0  0
   -1.5855   -0.7836    0.0378 N   0  0  0  0  0  0  0  0  0  0  0  0
   -2.6480   -0.2028   -0.6792 C   0  0  0  0  0  0  0  0  0  0  0  0
   -3.7492   -1.1342   -1.1703 C   0  0  0  0  0  0  0  0  0  0  0  0
   -2.8239    0.9803   -0.9765 O   0  0  0  0  0  0  0  0  0  0  0  0
    2.2592   -2.0617    2.7645 H   0  0  0  0  0  0  0  0  0  0  0  0
    3.6054   -1.1347    1.9959 H   0  0  0  0  0  0  0  0  0  0  0  0
    2.9188   -0.5707    3.5329 H   0  0  0  0  0  0  0  0  0  0  0  0
    1.8954    0.7540    1.8213 H   0  0  0  0  0  0  0  0  0  0  0  0
   -1.0275    1.8271   -0.0648 H   0  0  0  0  0  0  0  0  0  0  0  0
    0.5274    1.7410    0.8588 H   0  0  0  0  0  0  0  0  0  0  0  0
   -1.5806   -1.8379    0.2139 H   0  0  0  0  0  0  0  0  0  0  0  0
   -4.7084   -0.6156   -1.2356 H   0  0  0  0  0  0  0  0  0  0  0  0
   -3.4185   -1.5362   -2.1348 H   0  0  0  0  0  0  0  0  0  0  0  0
   -3.8258   -1.9621   -0.4181 H   0  0  0  0  0  0  0  0  0  0  0  0
  1  2  1  0
  1 11  1  0
  1 12  1  0
  1 13  1  0
  2  3  1  0
  2 14  1  0
  3  4  2  0
  3  5  1  0
  5  6  2  3
  5  7  1  0
  6 15  1  0
  6 16  1  0
  7  8  1  0
  7 17  1  0
  8  9  1  0
  8 10  2  0
  9 18  1  0
  9 19  1  0
  9 20  1  0
M  END

> <RosettaParamsInstructions>
M  ROOT 7
M  POLY_N_BB 7
M  POLY_CA_BB 5
M  POLY_C_BB 3
M  POLY_O_BB 4
M  POLY_IGNORE 1 10 9 14 11 12 13 18 19 20
M  POLY_UPPER 2
M  POLY_LOWER 8
M  POLY_CHG 0
M  POLY_PROPERTIES PROTEIN POLYMER ALPHA_AA ALIPHATIC
M  END

$$$$
DHA_new
     RDKit          3D

 20 19  0  0  0  0  0  0  0  0999 V2000
    2.7087   -1.0923    2.4835 C   0  0  0  0  0  0  0  0  0  0  0  0
    1.6877   -0.2397    1.8475 N   0  0  0  0  0  0  0  0  0  0  0  0
    0.5691   -0.8415    1.2550 C   0  0  0  0  0  0  0  0  0  0  0  0
    0.4575   -2.0916    1.2768 O   0  0  0  0  0  0  0  0  0  0  0  0
   -0.4934   -0.0613    0.6005 C   0  0  0  0  0  0  0  0  0  0  0  0
   -0.4157    1.2614    0.5546 C   0  0  0  0  0  0  0  0  0  0  0  0
   -1.5779   -0.7766    0.0352 N   0  0  0  0  0  0  0  0  0  0  0  0
   -2.6661   -0.2058   -0.6196 C   0  0  0  0  0  0  0  0  0  0  0  0
   -3.7229   -1.1668   -1.1525 C   0  0  0  0  0  0  0  0  0  0  0  0
   -2.8812    0.9911   -0.8227 O   0  0  0  0  0  0  0  0  0  0  0  0
    3.6932   -0.6539    2.2345 H   0  0  0  0  0  0  0  0  0  0  0  0
    2.5311   -1.0685    3.5694 H   0  0  0  0  0  0  0  0  0  0  0  0
    2.5903   -2.1106    2.1059 H   0  0  0  0  0  0  0  0  0  0  0  0
    1.8755    0.7835    1.8844 H   0  0  0  0  0  0  0  0  0  0  0  0
    0.4643    1.7409    1.0203 H   0  0  0  0  0  0  0  0  0  0  0  0
   -1.1450    1.9004    0.0983 H   0  0  0  0  0  0  0  0  0  0  0  0
   -1.5188   -1.8294    0.1401 H   0  0  0  0  0  0  0  0  0  0  0  0
   -3.8441   -1.9304   -0.3365 H   0  0  0  0  0  0  0  0  0  0  0  0
   -4.6502   -0.6463   -1.3812 H   0  0  0  0  0  0  0  0  0  0  0  0
   -3.2685   -1.6148   -2.0525 H   0  0  0  0  0  0  0  0  0  0  0  0
  1  2  1  0
  1 11  1  0
  1 12  1  0
  1 13  1  0
  2  3  1  0
  2 14  1  0
  3  4  2  0
  3  5  1  0
  5  6  2  3
  5  7  1  0
  6 15  1  0
  6 16  1  0
  7  8  1  0
  7 17  1  0
  8  9  1  0
  8 10  2  0
  9 18  1  0
  9 19  1  0
  9 20  1  0
M  END

> <RosettaParamsInstructions>
M  ROOT 7
M  POLY_N_BB 7
M  POLY_CA_BB 5
M  POLY_C_BB 3
M  POLY_O_BB 4
M  POLY_IGNORE 1 10 9 14 11 12 13 18 19 20
M  POLY_UPPER 2
M  POLY_LOWER 8
M  POLY_CHG 0
M  POLY_PROPERTIES PROTEIN POLYMER ALPHA_AA ALIPHATIC
M  END

$$$$
DHA_new
     RDKit          3D

 20 19  0  0  0  0  0  0  0  0999 V2000
    2.6639   -1.0427    2.5908 C   0  0  0  0  0  0  0  0  0  0  0  0
    1.6790   -0.2199    1.8694 N   0  0  0  0  0  0  0  0  0  0  0  0
    0.5757   -0.8514    1.3264 C   0  0  0  0  0  0  0  0  0  0  0  0
    0.3920   -2.1115    1.4332 O   0  0  0  0  0  0  0  0  0  0  0  0
   -0.4581   -0.0996    0.5882 C   0  0  0  0  0  0  0  0  0  0  0  0
   -0.3386    1.1983    0.4371 C   0  0  0  0  0  0  0  0  0  0  0  0
   -1.5751   -0.7934    0.0478 N   0  0  0  0  0  0  0  0  0  0  0  0
   -2.6186   -0.2449   -0.6613 C   0  0  0  0  0  0  0  0  0  0  0  0
   -3.7278   -1.1456   -1.1618 C   0  0  0  0  0  0  0  0  0  0  0  0
   -2.7679    0.9437   -0.9523 O   0  0  0  0  0  0  0  0  0  0  0  0
    3.0822   -0.4512    3.4500 H   0  0  0  0  0  0  0  0  0  0  0  0
    2.2286   -1.9795    2.9547 H   0  0  0  0  0  0  0  0  0  0  0  0
    3.4648   -1.2492    1.8410 H   0  0  0  0  0  0  0  0  0  0  0  0
    1.8898    0.7743    1.8239 H   0  0  0  0  0  0  0  0  0  0  0  0
   -1.0350    1.8257   -0.0808 H   0  0  0  0  0  0  0  0  0  0  0  0
    0.5405    1.7030    0.8695 H   0  0  0  0  0  0  0  0  0  0  0  0
   -1.6054   -1.8671    0.2133 H   0  0  0  0  0  0  0  0  0  0  0  0
   -3.6969   -2.0931   -0.6116 H   0  0  0  0  0  0  0  0  0  0  0  0
   -3.5950   -1.2986   -2.2474 H   0  0  0  0  0  0  0  0  0  0  0  0
   -4.7046   -0.6493   -0.9891 H   0  0  0  0  0  0  0  0  0  0  0  0
  1  2  1  0
  1 11  1  0
  1 12  1  0
  1 13  1  0
  2  3  1  0
  2 14  1  0
  3  4  2  0
  3  5  1  0
  5  6  2  3
  5  7  1  0
  6 15  1  0
  6 16  1  0
  7  8  1  0
  7 17  1  0
  8  9  1  0
  8 10  2  0
  9 18  1  0
  9 19  1  0
  9 20  1  0
M  END

> <RosettaParamsInstructions>
M  ROOT 7
M  POLY_N_BB 7
M  POLY_CA_BB 5
M  POLY_C_BB 3
M  POLY_O_BB 4
M  POLY_IGNORE 1 10 9 14 11 12 13 18 19 20
M  POLY_UPPER 2
M  POLY_LOWER 8
M  POLY_CHG 0
M  POLY_PROPERTIES PROTEIN POLYMER ALPHA_AA ALIPHATIC
M  END

$$$$
DHA_new
     RDKit          3D

 20 19  0  0  0  0  0  0  0  0999 V2000
    2.7230   -1.0623    2.5282 C   0  0  0  0  0  0  0  0  0  0  0  0
    1.6904   -0.2373    1.8607 N   0  0  0  0  0  0  0  0  0  0  0  0
    0.5817   -0.8540    1.2811 C   0  0  0  0  0  0  0  0  0  0  0  0
    0.4591   -2.1252    1.3268 O   0  0  0  0  0  0  0  0  0  0  0  0
   -0.4715   -0.0586    0.6046 C   0  0  0  0  0  0  0  0  0  0  0  0
   -0.3852    1.2356    0.5359 C   0  0  0  0  0  0  0  0  0  0  0  0
   -1.5684   -0.7552    0.0391 N   0  0  0  0  0  0  0  0  0  0  0  0
   -2.6652   -0.2360   -0.6373 C   0  0  0  0  0  0  0  0  0  0  0  0
   -3.7392   -1.1586   -1.1691 C   0  0  0  0  0  0  0  0  0  0  0  0
   -2.8153    0.9862   -0.8349 O   0  0  0  0  0  0  0  0  0  0  0  0
    3.5415   -1.2940    1.8218 H   0  0  0  0  0  0  0  0  0  0  0  0
    3.1682   -0.4900    3.3837 H   0  0  0  0  0  0  0  0  0  0  0  0
    2.2236   -1.9843    2.8527 H   0  0  0  0  0  0  0  0  0  0  0  0
    1.8442    0.7720    1.8568 H   0  0  0  0  0  0  0  0  0  0  0  0
   -1.1044    1.8751    0.0651 H   0  0  0  0  0  0  0  0  0  0  0  0
    0.4846    1.7409    0.9887 H   0  0  0  0  0  0  0  0  0  0  0  0
   -1.5534   -1.8333    0.1460 H   0  0  0  0  0  0  0  0  0  0  0  0
   -3.7069   -2.1383   -0.6530 H   0  0  0  0  0  0  0  0  0  0  0  0
   -4.7411   -0.7333   -1.0182 H   0  0  0  0  0  0  0  0  0  0  0  0
   -3.5721   -1.3015   -2.2380 H   0  0  0  0  0  0  0  0  0  0  0  0
  1  2  1  0
  1 11  1  0
  1 12  1  0
  1 13  1  0
  2  3  1  0
  2 14  1  0
  3  4  2  0
  3  5  1  0
  5  6  2  3
  5  7  1  0
  6 15  1  0
  6 16  1  0
  7  8  1  0
  7 17  1  0
  8  9  1  0
  8 10  2  0
  9 18  1  0
  9 19  1  0
  9 20  1  0
M  END

> <RosettaParamsInstructions>
M  ROOT 7
M  POLY_N_BB 7
M  POLY_CA_BB 5
M  POLY_C_BB 3
M  POLY_O_BB 4
M  POLY_IGNORE 1 10 9 14 11 12 13 18 19 20
M  POLY_UPPER 2
M  POLY_LOWER 8
M  POLY_CHG 0
M  POLY_PROPERTIES PROTEIN POLYMER ALPHA_AA ALIPHATIC
M  END

$$$$
DHA_new
     RDKit          3D

 20 19  0  0  0  0  0  0  0  0999 V2000
    2.6435   -1.0247    2.6503 C   0  0  0  0  0  0  0  0  0  0  0  0
    1.6791   -0.2183    1.8794 N   0  0  0  0  0  0  0  0  0  0  0  0
    0.5520   -0.8396    1.3559 C   0  0  0  0  0  0  0  0  0  0  0  0
    0.3645   -2.0662    1.5400 O   0  0  0  0  0  0  0  0  0  0  0  0
   -0.4482   -0.1167    0.5837 C   0  0  0  0  0  0  0  0  0  0  0  0
   -0.2486    1.1747    0.3912 C   0  0  0  0  0  0  0  0  0  0  0  0
   -1.5902   -0.7839    0.0624 N   0  0  0  0  0  0  0  0  0  0  0  0
   -2.6425   -0.2705   -0.6904 C   0  0  0  0  0  0  0  0  0  0  0  0
   -3.7786   -1.1383   -1.1597 C   0  0  0  0  0  0  0  0  0  0  0  0
   -2.7405    0.9267   -1.0379 O   0  0  0  0  0  0  0  0  0  0  0  0
    3.0403   -0.4448    3.4960 H   0  0  0  0  0  0  0  0  0  0  0  0
    2.2062   -1.9980    2.9319 H   0  0  0  0  0  0  0  0  0  0  0  0
    3.5137   -1.2476    1.9880 H   0  0  0  0  0  0  0  0  0  0  0  0
    1.9359    0.7840    1.7909 H   0  0  0  0  0  0  0  0  0  0  0  0
   -0.9279    1.8022   -0.1662 H   0  0  0  0  0  0  0  0  0  0  0  0
    0.6157    1.7307    0.7734 H   0  0  0  0  0  0  0  0  0  0  0  0
   -1.6162   -1.8339    0.3003 H   0  0  0  0  0  0  0  0  0  0  0  0
   -3.3527   -1.9034   -1.8668 H   0  0  0  0  0  0  0  0  0  0  0  0
   -4.3009   -1.6271   -0.3422 H   0  0  0  0  0  0  0  0  0  0  0  0
   -4.5110   -0.5573   -1.7391 H   0  0  0  0  0  0  0  0  0  0  0  0
  1  2  1  0
  1 11  1  0
  1 12  1  0
  1 13  1  0
  2  3  1  0
  2 14  1  0
  3  4  2  0
  3  5  1  0
  5  6  2  3
  5  7  1  0
  6 15  1  0
  6 16  1  0
  7  8  1  0
  7 17  1  0
  8  9  1  0
  8 10  2  0
  9 18  1  0
  9 19  1  0
  9 20  1  0
M  END

> <RosettaParamsInstructions>
M  ROOT 7
M  POLY_N_BB 7
M  POLY_CA_BB 5
M  POLY_C_BB 3
M  POLY_O_BB 4
M  POLY_IGNORE 1 10 9 14 11 12 13 18 19 20
M  POLY_UPPER 2
M  POLY_LOWER 8
M  POLY_CHG 0
M  POLY_PROPERTIES PROTEIN POLYMER ALPHA_AA ALIPHATIC
M  END

$$$$
DHA_new
     RDKit          3D

 20 19  0  0  0  0  0  0  0  0999 V2000
    2.7066   -1.0480    2.4916 C   0  0  0  0  0  0  0  0  0  0  0  0
    1.6967   -0.2127    1.8518 N   0  0  0  0  0  0  0  0  0  0  0  0
    0.5965   -0.8238    1.2724 C   0  0  0  0  0  0  0  0  0  0  0  0
    0.4816   -2.0837    1.3043 O   0  0  0  0  0  0  0  0  0  0  0  0
   -0.4893   -0.0720    0.5958 C   0  0  0  0  0  0  0  0  0  0  0  0
   -0.3763    1.2261    0.5598 C   0  0  0  0  0  0  0  0  0  0  0  0
   -1.5694   -0.7688    0.0342 N   0  0  0  0  0  0  0  0  0  0  0  0
   -2.6564   -0.2230   -0.6272 C   0  0  0  0  0  0  0  0  0  0  0  0
   -3.7297   -1.1610   -1.1662 C   0  0  0  0  0  0  0  0  0  0  0  0
   -2.8587    0.9797   -0.8355 O   0  0  0  0  0  0  0  0  0  0  0  0
    3.0194   -1.8037    1.7257 H   0  0  0  0  0  0  0  0  0  0  0  0
    3.5503   -0.4806    2.8851 H   0  0  0  0  0  0  0  0  0  0  0  0
    2.2254   -1.5817    3.3464 H   0  0  0  0  0  0  0  0  0  0  0  0
    1.8502    0.7908    1.8617 H   0  0  0  0  0  0  0  0  0  0  0  0
   -1.1243    1.8321    0.0869 H   0  0  0  0  0  0  0  0  0  0  0  0
    0.4613    1.7605    0.9956 H   0  0  0  0  0  0  0  0  0  0  0  0
   -1.5428   -1.8341    0.1318 H   0  0  0  0  0  0  0  0  0  0  0  0
   -3.7584   -2.0331   -0.4860 H   0  0  0  0  0  0  0  0  0  0  0  0
   -4.6992   -0.6672   -1.1175 H   0  0  0  0  0  0  0  0  0  0  0  0
   -3.3901   -1.4480   -2.1698 H   0  0  0  0  0  0  0  0  0  0  0  0
  1  2  1  0
  1 11  1  0
  1 12  1  0
  1 13  1  0
  2  3  1  0
  2 14  1  0
  3  4  2  0
  3  5  1  0
  5  6  2  3
  5  7  1  0
  6 15  1  0
  6 16  1  0
  7  8  1  0
  7 17  1  0
  8  9  1  0
  8 10  2  0
  9 18  1  0
  9 19  1  0
  9 20  1  0
M  END

> <RosettaParamsInstructions>
M  ROOT 7
M  POLY_N_BB 7
M  POLY_CA_BB 5
M  POLY_C_BB 3
M  POLY_O_BB 4
M  POLY_IGNORE 1 10 9 14 11 12 13 18 19 20
M  POLY_UPPER 2
M  POLY_LOWER 8
M  POLY_CHG 0
M  POLY_PROPERTIES PROTEIN POLYMER ALPHA_AA ALIPHATIC
M  END

$$$$
DHA_new
     RDKit          3D

 20 19  0  0  0  0  0  0  0  0999 V2000
    2.6544   -1.0986    2.5903 C   0  0  0  0  0  0  0  0  0  0  0  0
    1.7055   -0.2464    1.8398 N   0  0  0  0  0  0  0  0  0  0  0  0
    0.5490   -0.8236    1.3130 C   0  0  0  0  0  0  0  0  0  0  0  0
    0.3463   -2.0689    1.4952 O   0  0  0  0  0  0  0  0  0  0  0  0
   -0.4341   -0.0288    0.5566 C   0  0  0  0  0  0  0  0  0  0  0  0
   -0.2766    1.2461    0.3413 C   0  0  0  0  0  0  0  0  0  0  0  0
   -1.5588   -0.7447    0.0813 N   0  0  0  0  0  0  0  0  0  0  0  0
   -2.6269   -0.2231   -0.6584 C   0  0  0  0  0  0  0  0  0  0  0  0
   -3.7313   -1.1639   -1.0681 C   0  0  0  0  0  0  0  0  0  0  0  0
   -2.7785    0.9497   -1.0271 O   0  0  0  0  0  0  0  0  0  0  0  0
    2.4506   -2.1525    2.3484 H   0  0  0  0  0  0  0  0  0  0  0  0
    2.5250   -0.8357    3.6471 H   0  0  0  0  0  0  0  0  0  0  0  0
    3.6964   -0.8493    2.2792 H   0  0  0  0  0  0  0  0  0  0  0  0
    1.9203    0.7434    1.7259 H   0  0  0  0  0  0  0  0  0  0  0  0
    0.6283    1.7428    0.7428 H   0  0  0  0  0  0  0  0  0  0  0  0
   -0.9911    1.8355   -0.2112 H   0  0  0  0  0  0  0  0  0  0  0  0
   -1.6289   -1.7934    0.2927 H   0  0  0  0  0  0  0  0  0  0  0  0
   -3.7259   -1.2877   -2.1699 H   0  0  0  0  0  0  0  0  0  0  0  0
   -4.7057   -0.7104   -0.7865 H   0  0  0  0  0  0  0  0  0  0  0  0
   -3.6245   -2.1426   -0.5916 H   0  0  0  0  0  0  0  0  0  0  0  0
  1  2  1  0
  1 11  1  0
  1 12  1  0
  1 13  1  0
  2  3  1  0
  2 14  1  0
  3  4  2  0
  3  5  1  0
  5  6  2  3
  5  7  1  0
  6 15  1  0
  6 16  1  0
  7  8  1  0
  7 17  1  0
  8  9  1  0
  8 10  2  0
  9 18  1  0
  9 19  1  0
  9 20  1  0
M  END

> <RosettaParamsInstructions>
M  ROOT 7
M  POLY_N_BB 7
M  POLY_CA_BB 5
M  POLY_C_BB 3
M  POLY_O_BB 4
M  POLY_IGNORE 1 10 9 14 11 12 13 18 19 20
M  POLY_UPPER 2
M  POLY_LOWER 8
M  POLY_CHG 0
M  POLY_PROPERTIES PROTEIN POLYMER ALPHA_AA ALIPHATIC
M  END

$$$$
DHA_new
     RDKit          3D

 20 19  0  0  0  0  0  0  0  0999 V2000
    2.6605   -1.0406    2.6564 C   0  0  0  0  0  0  0  0  0  0  0  0
    1.6924   -0.2488    1.8598 N   0  0  0  0  0  0  0  0  0  0  0  0
    0.5411   -0.8226    1.3309 C   0  0  0  0  0  0  0  0  0  0  0  0
    0.3387   -2.0530    1.5498 O   0  0  0  0  0  0  0  0  0  0  0  0
   -0.4299   -0.0851    0.5476 C   0  0  0  0  0  0  0  0  0  0  0  0
   -0.2455    1.1884    0.3061 C   0  0  0  0  0  0  0  0  0  0  0  0
   -1.5608   -0.7809    0.0645 N   0  0  0  0  0  0  0  0  0  0  0  0
   -2.6152   -0.2672   -0.7067 C   0  0  0  0  0  0  0  0  0  0  0  0
   -3.7578   -1.1466   -1.1460 C   0  0  0  0  0  0  0  0  0  0  0  0
   -2.7027    0.9220   -1.0872 O   0  0  0  0  0  0  0  0  0  0  0  0
    3.5737   -1.2299    2.0939 H   0  0  0  0  0  0  0  0  0  0  0  0
    2.8007   -0.4696    3.5951 H   0  0  0  0  0  0  0  0  0  0  0  0
    2.1319   -1.9787    2.9449 H   0  0  0  0  0  0  0  0  0  0  0  0
    1.9729    0.7391    1.7544 H   0  0  0  0  0  0  0  0  0  0  0  0
    0.6520    1.7022    0.7001 H   0  0  0  0  0  0  0  0  0  0  0  0
   -0.8882    1.8346   -0.2560 H   0  0  0  0  0  0  0  0  0  0  0  0
   -1.6471   -1.8330    0.3035 H   0  0  0  0  0  0  0  0  0  0  0  0
   -3.6481   -1.3497   -2.2322 H   0  0  0  0  0  0  0  0  0  0  0  0
   -3.7658   -2.1046   -0.6301 H   0  0  0  0  0  0  0  0  0  0  0  0
   -4.7093   -0.6283   -0.9080 H   0  0  0  0  0  0  0  0  0  0  0  0
  1  2  1  0
  1 11  1  0
  1 12  1  0
  1 13  1  0
  2  3  1  0
  2 14  1  0
  3  4  2  0
  3  5  1  0
  5  6  2  3
  5  7  1  0
  6 15  1  0
  6 16  1  0
  7  8  1  0
  7 17  1  0
  8  9  1  0
  8 10  2  0
  9 18  1  0
  9 19  1  0
  9 20  1  0
M  END

> <RosettaParamsInstructions>
M  ROOT 7
M  POLY_N_BB 7
M  POLY_CA_BB 5
M  POLY_C_BB 3
M  POLY_O_BB 4
M  POLY_IGNORE 1 10 9 14 11 12 13 18 19 20
M  POLY_UPPER 2
M  POLY_LOWER 8
M  POLY_CHG 0
M  POLY_PROPERTIES PROTEIN POLYMER ALPHA_AA ALIPHATIC
M  END

$$$$
DHA_new
     RDKit          3D

 20 19  0  0  0  0  0  0  0  0999 V2000
    2.6608   -1.0714    2.5652 C   0  0  0  0  0  0  0  0  0  0  0  0
    1.6918   -0.1929    1.8556 N   0  0  0  0  0  0  0  0  0  0  0  0
    0.5782   -0.8339    1.3139 C   0  0  0  0  0  0  0  0  0  0  0  0
    0.4234   -2.0794    1.4304 O   0  0  0  0  0  0  0  0  0  0  0  0
   -0.4699   -0.0812    0.5790 C   0  0  0  0  0  0  0  0  0  0  0  0
   -0.3317    1.2027    0.4464 C   0  0  0  0  0  0  0  0  0  0  0  0
   -1.5774   -0.7874    0.0516 N   0  0  0  0  0  0  0  0  0  0  0  0
   -2.6348   -0.2483   -0.6533 C   0  0  0  0  0  0  0  0  0  0  0  0
   -3.7381   -1.1637   -1.1435 C   0  0  0  0  0  0  0  0  0  0  0  0
   -2.7731    0.9593   -0.9341 O   0  0  0  0  0  0  0  0  0  0  0  0
    3.6606   -0.5798    2.5211 H   0  0  0  0  0  0  0  0  0  0  0  0
    2.6455   -2.0732    2.1093 H   0  0  0  0  0  0  0  0  0  0  0  0
    2.3741   -1.1586    3.6143 H   0  0  0  0  0  0  0  0  0  0  0  0
    1.8949    0.8182    1.8060 H   0  0  0  0  0  0  0  0  0  0  0  0
    0.5392    1.7402    0.8641 H   0  0  0  0  0  0  0  0  0  0  0  0
   -1.0155    1.8458   -0.0582 H   0  0  0  0  0  0  0  0  0  0  0  0
   -1.5798   -1.8343    0.2239 H   0  0  0  0  0  0  0  0  0  0  0  0
   -4.5724   -1.1140   -0.4422 H   0  0  0  0  0  0  0  0  0  0  0  0
   -3.3055   -2.1700   -1.2627 H   0  0  0  0  0  0  0  0  0  0  0  0
   -4.0768   -0.8304   -2.1460 H   0  0  0  0  0  0  0  0  0  0  0  0
  1  2  1  0
  1 11  1  0
  1 12  1  0
  1 13  1  0
  2  3  1  0
  2 14  1  0
  3  4  2  0
  3  5  1  0
  5  6  2  3
  5  7  1  0
  6 15  1  0
  6 16  1  0
  7  8  1  0
  7 17  1  0
  8  9  1  0
  8 10  2  0
  9 18  1  0
  9 19  1  0
  9 20  1  0
M  END

> <RosettaParamsInstructions>
M  ROOT 7
M  POLY_N_BB 7
M  POLY_CA_BB 5
M  POLY_C_BB 3
M  POLY_O_BB 4
M  POLY_IGNORE 1 10 9 14 11 12 13 18 19 20
M  POLY_UPPER 2
M  POLY_LOWER 8
M  POLY_CHG 0
M  POLY_PROPERTIES PROTEIN POLYMER ALPHA_AA ALIPHATIC
M  END

$$$$
DHA_new
     RDKit          3D

 20 19  0  0  0  0  0  0  0  0999 V2000
    2.6167   -1.0427    2.6663 C   0  0  0  0  0  0  0  0  0  0  0  0
    1.6657   -0.2643    1.8715 N   0  0  0  0  0  0  0  0  0  0  0  0
    0.5044   -0.8205    1.3293 C   0  0  0  0  0  0  0  0  0  0  0  0
    0.2861   -2.0361    1.5432 O   0  0  0  0  0  0  0  0  0  0  0  0
   -0.4285   -0.0401    0.5448 C   0  0  0  0  0  0  0  0  0  0  0  0
   -0.2217    1.2155    0.3125 C   0  0  0  0  0  0  0  0  0  0  0  0
   -1.5687   -0.7351    0.0548 N   0  0  0  0  0  0  0  0  0  0  0  0
   -2.6234   -0.2322   -0.7242 C   0  0  0  0  0  0  0  0  0  0  0  0
   -3.7382   -1.1818   -1.1265 C   0  0  0  0  0  0  0  0  0  0  0  0
   -2.6842    0.9498   -1.0970 O   0  0  0  0  0  0  0  0  0  0  0  0
    2.3415   -2.1018    2.5240 H   0  0  0  0  0  0  0  0  0  0  0  0
    3.6523   -0.8512    2.3277 H   0  0  0  0  0  0  0  0  0  0  0  0
    2.5536   -0.7964    3.7410 H   0  0  0  0  0  0  0  0  0  0  0  0
    1.9086    0.7280    1.7359 H   0  0  0  0  0  0  0  0  0  0  0  0
    0.6501    1.7206    0.6947 H   0  0  0  0  0  0  0  0  0  0  0  0
   -0.8857    1.8271   -0.2618 H   0  0  0  0  0  0  0  0  0  0  0  0
   -1.6722   -1.7824    0.2901 H   0  0  0  0  0  0  0  0  0  0  0  0
   -3.9204   -0.9830   -2.2025 H   0  0  0  0  0  0  0  0  0  0  0  0
   -3.4194   -2.2339   -0.9908 H   0  0  0  0  0  0  0  0  0  0  0  0
   -4.6231   -0.9919   -0.4921 H   0  0  0  0  0  0  0  0  0  0  0  0
  1  2  1  0
  1 11  1  0
  1 12  1  0
  1 13  1  0
  2  3  1  0
  2 14  1  0
  3  4  2  0
  3  5  1  0
  5  6  2  3
  5  7  1  0
  6 15  1  0
  6 16  1  0
  7  8  1  0
  7 17  1  0
  8  9  1  0
  8 10  2  0
  9 18  1  0
  9 19  1  0
  9 20  1  0
M  END

> <RosettaParamsInstructions>
M  ROOT 7
M  POLY_N_BB 7
M  POLY_CA_BB 5
M  POLY_C_BB 3
M  POLY_O_BB 4
M  POLY_IGNORE 1 10 9 14 11 12 13 18 19 20
M  POLY_UPPER 2
M  POLY_LOWER 8
M  POLY_CHG 0
M  POLY_PROPERTIES PROTEIN POLYMER ALPHA_AA ALIPHATIC
M  END

$$$$
DHA_new
     RDKit          3D

 20 19  0  0  0  0  0  0  0  0999 V2000
    2.6687   -1.0816    2.5879 C   0  0  0  0  0  0  0  0  0  0  0  0
    1.7199   -0.1986    1.8809 N   0  0  0  0  0  0  0  0  0  0  0  0
    0.5859   -0.8164    1.3215 C   0  0  0  0  0  0  0  0  0  0  0  0
    0.4104   -2.0611    1.4311 O   0  0  0  0  0  0  0  0  0  0  0  0
   -0.4526   -0.0528    0.5822 C   0  0  0  0  0  0  0  0  0  0  0  0
   -0.3189    1.2313    0.4413 C   0  0  0  0  0  0  0  0  0  0  0  0
   -1.5628   -0.7501    0.0504 N   0  0  0  0  0  0  0  0  0  0  0  0
   -2.6481   -0.2321   -0.6743 C   0  0  0  0  0  0  0  0  0  0  0  0
   -3.7528   -1.1614   -1.1632 C   0  0  0  0  0  0  0  0  0  0  0  0
   -2.8192    0.9692   -0.9798 O   0  0  0  0  0  0  0  0  0  0  0  0
    3.3154   -0.4466    3.2068 H   0  0  0  0  0  0  0  0  0  0  0  0
    2.1370   -1.7987    3.2354 H   0  0  0  0  0  0  0  0  0  0  0  0
    3.2133   -1.6462    1.8104 H   0  0  0  0  0  0  0  0  0  0  0  0
    1.9094    0.8181    1.8184 H   0  0  0  0  0  0  0  0  0  0  0  0
    0.5342    1.7933    0.8455 H   0  0  0  0  0  0  0  0  0  0  0  0
   -1.0349    1.8296   -0.0807 H   0  0  0  0  0  0  0  0  0  0  0  0
   -1.5828   -1.8209    0.2216 H   0  0  0  0  0  0  0  0  0  0  0  0
   -4.0831   -0.8265   -2.1482 H   0  0  0  0  0  0  0  0  0  0  0  0
   -4.5623   -1.2159   -0.4069 H   0  0  0  0  0  0  0  0  0  0  0  0
   -3.2831   -2.1849   -1.2395 H   0  0  0  0  0  0  0  0  0  0  0  0
  1  2  1  0
  1 11  1  0
  1 12  1  0
  1 13  1  0
  2  3  1  0
  2 14  1  0
  3  4  2  0
  3  5  1  0
  5  6  2  3
  5  7  1  0
  6 15  1  0
  6 16  1  0
  7  8  1  0
  7 17  1  0
  8  9  1  0
  8 10  2  0
  9 18  1  0
  9 19  1  0
  9 20  1  0
M  END

> <RosettaParamsInstructions>
M  ROOT 7
M  POLY_N_BB 7
M  POLY_CA_BB 5
M  POLY_C_BB 3
M  POLY_O_BB 4
M  POLY_IGNORE 1 10 9 14 11 12 13 18 19 20
M  POLY_UPPER 2
M  POLY_LOWER 8
M  POLY_CHG 0
M  POLY_PROPERTIES PROTEIN POLYMER ALPHA_AA ALIPHATIC
M  END

$$$$
DHA_new
     RDKit          3D

 20 19  0  0  0  0  0  0  0  0999 V2000
    2.6317   -1.0427    2.6410 C   0  0  0  0  0  0  0  0  0  0  0  0
    1.7016   -0.2125    1.8519 N   0  0  0  0  0  0  0  0  0  0  0  0
    0.5662   -0.8129    1.3407 C   0  0  0  0  0  0  0  0  0  0  0  0
    0.3241   -2.0267    1.5359 O   0  0  0  0  0  0  0  0  0  0  0  0
   -0.4188   -0.0580    0.5397 C   0  0  0  0  0  0  0  0  0  0  0  0
   -0.2020    1.2107    0.3140 C   0  0  0  0  0  0  0  0  0  0  0  0
   -1.5569   -0.7338    0.0481 N   0  0  0  0  0  0  0  0  0  0  0  0
   -2.6185   -0.2601   -0.7198 C   0  0  0  0  0  0  0  0  0  0  0  0
   -3.7444   -1.1756   -1.1371 C   0  0  0  0  0  0  0  0  0  0  0  0
   -2.7183    0.9123   -1.1081 O   0  0  0  0  0  0  0  0  0  0  0  0
    2.9212   -1.9529    2.0992 H   0  0  0  0  0  0  0  0  0  0  0  0
    3.4605   -0.4566    3.0443 H   0  0  0  0  0  0  0  0  0  0  0  0
    2.0213   -1.3726    3.5231 H   0  0  0  0  0  0  0  0  0  0  0  0
    1.9604    0.7692    1.7316 H   0  0  0  0  0  0  0  0  0  0  0  0
   -0.9129    1.7901   -0.2737 H   0  0  0  0  0  0  0  0  0  0  0  0
    0.6810    1.7086    0.7029 H   0  0  0  0  0  0  0  0  0  0  0  0
   -1.6074   -1.7741    0.3094 H   0  0  0  0  0  0  0  0  0  0  0  0
   -3.8218   -1.2172   -2.2293 H   0  0  0  0  0  0  0  0  0  0  0  0
   -3.6032   -2.1933   -0.7313 H   0  0  0  0  0  0  0  0  0  0  0  0
   -4.6700   -0.7541   -0.7417 H   0  0  0  0  0  0  0  0  0  0  0  0
  1  2  1  0
  1 11  1  0
  1 12  1  0
  1 13  1  0
  2  3  1  0
  2 14  1  0
  3  4  2  0
  3  5  1  0
  5  6  2  3
  5  7  1  0
  6 15  1  0
  6 16  1  0
  7  8  1  0
  7 17  1  0
  8  9  1  0
  8 10  2  0
  9 18  1  0
  9 19  1  0
  9 20  1  0
M  END

> <RosettaParamsInstructions>
M  ROOT 7
M  POLY_N_BB 7
M  POLY_CA_BB 5
M  POLY_C_BB 3
M  POLY_O_BB 4
M  POLY_IGNORE 1 10 9 14 11 12 13 18 19 20
M  POLY_UPPER 2
M  POLY_LOWER 8
M  POLY_CHG 0
M  POLY_PROPERTIES PROTEIN POLYMER ALPHA_AA ALIPHATIC
M  END

$$$$
DHA_new
     RDKit          3D

 20 19  0  0  0  0  0  0  0  0999 V2000
    2.6781   -1.0576    2.5888 C   0  0  0  0  0  0  0  0  0  0  0  0
    1.6833   -0.2606    1.8697 N   0  0  0  0  0  0  0  0  0  0  0  0
    0.5450   -0.8443    1.3004 C   0  0  0  0  0  0  0  0  0  0  0  0
    0.3828   -2.1019    1.4183 O   0  0  0  0  0  0  0  0  0  0  0  0
   -0.4455   -0.0505    0.5844 C   0  0  0  0  0  0  0  0  0  0  0  0
   -0.3331    1.2350    0.4325 C   0  0  0  0  0  0  0  0  0  0  0  0
   -1.5570   -0.7492    0.0503 N   0  0  0  0  0  0  0  0  0  0  0  0
   -2.6438   -0.2337   -0.6751 C   0  0  0  0  0  0  0  0  0  0  0  0
   -3.7461   -1.1371   -1.1691 C   0  0  0  0  0  0  0  0  0  0  0  0
   -2.7997    0.9698   -0.9706 O   0  0  0  0  0  0  0  0  0  0  0  0
    2.9252   -1.9918    2.0304 H   0  0  0  0  0  0  0  0  0  0  0  0
    3.6326   -0.5016    2.6951 H   0  0  0  0  0  0  0  0  0  0  0  0
    2.3328   -1.3008    3.6142 H   0  0  0  0  0  0  0  0  0  0  0  0
    1.8613    0.7520    1.8026 H   0  0  0  0  0  0  0  0  0  0  0  0
    0.5395    1.7513    0.8572 H   0  0  0  0  0  0  0  0  0  0  0  0
   -1.0354    1.8466   -0.0835 H   0  0  0  0  0  0  0  0  0  0  0  0
   -1.6009   -1.8224    0.2063 H   0  0  0  0  0  0  0  0  0  0  0  0
   -3.6982   -2.1017   -0.6219 H   0  0  0  0  0  0  0  0  0  0  0  0
   -3.5936   -1.3649   -2.2398 H   0  0  0  0  0  0  0  0  0  0  0  0
   -4.7341   -0.6889   -0.9493 H   0  0  0  0  0  0  0  0  0  0  0  0
  1  2  1  0
  1 11  1  0
  1 12  1  0
  1 13  1  0
  2  3  1  0
  2 14  1  0
  3  4  2  0
  3  5  1  0
  5  6  2  3
  5  7  1  0
  6 15  1  0
  6 16  1  0
  7  8  1  0
  7 17  1  0
  8  9  1  0
  8 10  2  0
  9 18  1  0
  9 19  1  0
  9 20  1  0
M  END

> <RosettaParamsInstructions>
M  ROOT 7
M  POLY_N_BB 7
M  POLY_CA_BB 5
M  POLY_C_BB 3
M  POLY_O_BB 4
M  POLY_IGNORE 1 10 9 14 11 12 13 18 19 20
M  POLY_UPPER 2
M  POLY_LOWER 8
M  POLY_CHG 0
M  POLY_PROPERTIES PROTEIN POLYMER ALPHA_AA ALIPHATIC
M  END

$$$$
DHA_new
     RDKit          3D

 20 19  0  0  0  0  0  0  0  0999 V2000
    2.6972   -1.0581    2.5769 C   0  0  0  0  0  0  0  0  0  0  0  0
    1.7307   -0.2492    1.8363 N   0  0  0  0  0  0  0  0  0  0  0  0
    0.5740   -0.8157    1.3175 C   0  0  0  0  0  0  0  0  0  0  0  0
    0.3668   -2.0720    1.5012 O   0  0  0  0  0  0  0  0  0  0  0  0
   -0.4557   -0.0630    0.5546 C   0  0  0  0  0  0  0  0  0  0  0  0
   -0.2729    1.2179    0.3511 C   0  0  0  0  0  0  0  0  0  0  0  0
   -1.5860   -0.7648    0.0832 N   0  0  0  0  0  0  0  0  0  0  0  0
   -2.6582   -0.2583   -0.6448 C   0  0  0  0  0  0  0  0  0  0  0  0
   -3.8001   -1.1440   -1.0787 C   0  0  0  0  0  0  0  0  0  0  0  0
   -2.7703    0.9329   -0.9936 O   0  0  0  0  0  0  0  0  0  0  0  0
    2.5842   -2.0911    2.1982 H   0  0  0  0  0  0  0  0  0  0  0  0
    2.4442   -1.0248    3.6447 H   0  0  0  0  0  0  0  0  0  0  0  0
    3.7164   -0.6794    2.4345 H   0  0  0  0  0  0  0  0  0  0  0  0
    1.9588    0.7495    1.7260 H   0  0  0  0  0  0  0  0  0  0  0  0
    0.6344    1.6910    0.7511 H   0  0  0  0  0  0  0  0  0  0  0  0
   -0.9819    1.8381   -0.1986 H   0  0  0  0  0  0  0  0  0  0  0  0
   -1.6412   -1.8148    0.3035 H   0  0  0  0  0  0  0  0  0  0  0  0
   -3.4108   -2.1747   -1.0606 H   0  0  0  0  0  0  0  0  0  0  0  0
   -4.6562   -0.9641   -0.4336 H   0  0  0  0  0  0  0  0  0  0  0  0
   -4.0800   -0.9077   -2.1281 H   0  0  0  0  0  0  0  0  0  0  0  0
  1  2  1  0
  1 11  1  0
  1 12  1  0
  1 13  1  0
  2  3  1  0
  2 14  1  0
  3  4  2  0
  3  5  1  0
  5  6  2  3
  5  7  1  0
  6 15  1  0
  6 16  1  0
  7  8  1  0
  7 17  1  0
  8  9  1  0
  8 10  2  0
  9 18  1  0
  9 19  1  0
  9 20  1  0
M  END

> <RosettaParamsInstructions>
M  ROOT 7
M  POLY_N_BB 7
M  POLY_CA_BB 5
M  POLY_C_BB 3
M  POLY_O_BB 4
M  POLY_IGNORE 1 10 9 14 11 12 13 18 19 20
M  POLY_UPPER 2
M  POLY_LOWER 8
M  POLY_CHG 0
M  POLY_PROPERTIES PROTEIN POLYMER ALPHA_AA ALIPHATIC
M  END

$$$$
DHA_new
     RDKit          3D

 20 19  0  0  0  0  0  0  0  0999 V2000
    2.6657   -1.0574    2.5554 C   0  0  0  0  0  0  0  0  0  0  0  0
    1.7121   -0.2302    1.8362 N   0  0  0  0  0  0  0  0  0  0  0  0
    0.5698   -0.8037    1.3080 C   0  0  0  0  0  0  0  0  0  0  0  0
    0.3838   -2.0579    1.4693 O   0  0  0  0  0  0  0  0  0  0  0  0
   -0.4542   -0.0333    0.5609 C   0  0  0  0  0  0  0  0  0  0  0  0
   -0.3056    1.2536    0.3714 C   0  0  0  0  0  0  0  0  0  0  0  0
   -1.5846   -0.7716    0.0746 N   0  0  0  0  0  0  0  0  0  0  0  0
   -2.6410   -0.2361   -0.6410 C   0  0  0  0  0  0  0  0  0  0  0  0
   -3.7645   -1.1427   -1.0876 C   0  0  0  0  0  0  0  0  0  0  0  0
   -2.7617    0.9468   -0.9617 O   0  0  0  0  0  0  0  0  0  0  0  0
    3.6531   -1.0537    2.0837 H   0  0  0  0  0  0  0  0  0  0  0  0
    2.3348   -2.1212    2.5968 H   0  0  0  0  0  0  0  0  0  0  0  0
    2.7725   -0.7148    3.6156 H   0  0  0  0  0  0  0  0  0  0  0  0
    1.9317    0.7667    1.7489 H   0  0  0  0  0  0  0  0  0  0  0  0
   -1.0152    1.8522   -0.1601 H   0  0  0  0  0  0  0  0  0  0  0  0
    0.5981    1.7197    0.7866 H   0  0  0  0  0  0  0  0  0  0  0  0
   -1.6189   -1.8256    0.2795 H   0  0  0  0  0  0  0  0  0  0  0  0
   -4.7190   -0.6155   -1.0851 H   0  0  0  0  0  0  0  0  0  0  0  0
   -3.5375   -1.4810   -2.1396 H   0  0  0  0  0  0  0  0  0  0  0  0
   -3.8256   -2.0466   -0.4711 H   0  0  0  0  0  0  0  0  0  0  0  0
  1  2  1  0
  1 11  1  0
  1 12  1  0
  1 13  1  0
  2  3  1  0
  2 14  1  0
  3  4  2  0
  3  5  1  0
  5  6  2  3
  5  7  1  0
  6 15  1  0
  6 16  1  0
  7  8  1  0
  7 17  1  0
  8  9  1  0
  8 10  2  0
  9 18  1  0
  9 19  1  0
  9 20  1  0
M  END

> <RosettaParamsInstructions>
M  ROOT 7
M  POLY_N_BB 7
M  POLY_CA_BB 5
M  POLY_C_BB 3
M  POLY_O_BB 4
M  POLY_IGNORE 1 10 9 14 11 12 13 18 19 20
M  POLY_UPPER 2
M  POLY_LOWER 8
M  POLY_CHG 0
M  POLY_PROPERTIES PROTEIN POLYMER ALPHA_AA ALIPHATIC
M  END

$$$$
DHA_new
     RDKit          3D

 20 19  0  0  0  0  0  0  0  0999 V2000
    2.6524   -1.0527    2.6134 C   0  0  0  0  0  0  0  0  0  0  0  0
    1.6789   -0.2439    1.8419 N   0  0  0  0  0  0  0  0  0  0  0  0
    0.5236   -0.8473    1.3256 C   0  0  0  0  0  0  0  0  0  0  0  0
    0.2990   -2.0835    1.5111 O   0  0  0  0  0  0  0  0  0  0  0  0
   -0.4527   -0.0928    0.5663 C   0  0  0  0  0  0  0  0  0  0  0  0
   -0.2471    1.1863    0.3589 C   0  0  0  0  0  0  0  0  0  0  0  0
   -1.5939   -0.7591    0.0743 N   0  0  0  0  0  0  0  0  0  0  0  0
   -2.6422   -0.2257   -0.6702 C   0  0  0  0  0  0  0  0  0  0  0  0
   -3.7641   -1.1407   -1.0875 C   0  0  0  0  0  0  0  0  0  0  0  0
   -2.7733    0.9709   -1.0520 O   0  0  0  0  0  0  0  0  0  0  0  0
    2.4938   -2.0907    2.3005 H   0  0  0  0  0  0  0  0  0  0  0  0
    2.5604   -0.8585    3.6812 H   0  0  0  0  0  0  0  0  0  0  0  0
    3.6737   -0.7753    2.2445 H   0  0  0  0  0  0  0  0  0  0  0  0
    1.9692    0.7495    1.7571 H   0  0  0  0  0  0  0  0  0  0  0  0
    0.6333    1.7261    0.7318 H   0  0  0  0  0  0  0  0  0  0  0  0
   -0.9217    1.8137   -0.1929 H   0  0  0  0  0  0  0  0  0  0  0  0
   -1.6521   -1.8008    0.3067 H   0  0  0  0  0  0  0  0  0  0  0  0
   -4.2070   -0.8029   -2.0558 H   0  0  0  0  0  0  0  0  0  0  0  0
   -4.5137   -1.1773   -0.2808 H   0  0  0  0  0  0  0  0  0  0  0  0
   -3.3229   -2.1474   -1.2332 H   0  0  0  0  0  0  0  0  0  0  0  0
  1  2  1  0
  1 11  1  0
  1 12  1  0
  1 13  1  0
  2  3  1  0
  2 14  1  0
  3  4  2  0
  3  5  1  0
  5  6  2  3
  5  7  1  0
  6 15  1  0
  6 16  1  0
  7  8  1  0
  7 17  1  0
  8  9  1  0
  8 10  2  0
  9 18  1  0
  9 19  1  0
  9 20  1  0
M  END

> <RosettaParamsInstructions>
M  ROOT 7
M  POLY_N_BB 7
M  POLY_CA_BB 5
M  POLY_C_BB 3
M  POLY_O_BB 4
M  POLY_IGNORE 1 10 9 14 11 12 13 18 19 20
M  POLY_UPPER 2
M  POLY_LOWER 8
M  POLY_CHG 0
M  POLY_PROPERTIES PROTEIN POLYMER ALPHA_AA ALIPHATIC
M  END

$$$$
DHA_new
     RDKit          3D

 20 19  0  0  0  0  0  0  0  0999 V2000
    2.6639   -1.0760    2.5851 C   0  0  0  0  0  0  0  0  0  0  0  0
    1.6751   -0.2580    1.8641 N   0  0  0  0  0  0  0  0  0  0  0  0
    0.5308   -0.8170    1.2891 C   0  0  0  0  0  0  0  0  0  0  0  0
    0.3705   -2.0586    1.4089 O   0  0  0  0  0  0  0  0  0  0  0  0
   -0.4582   -0.0466    0.5762 C   0  0  0  0  0  0  0  0  0  0  0  0
   -0.3264    1.2492    0.4304 C   0  0  0  0  0  0  0  0  0  0  0  0
   -1.5724   -0.7528    0.0441 N   0  0  0  0  0  0  0  0  0  0  0  0
   -2.6488   -0.2445   -0.6750 C   0  0  0  0  0  0  0  0  0  0  0  0
   -3.7223   -1.1948   -1.1411 C   0  0  0  0  0  0  0  0  0  0  0  0
   -2.7711    0.9568   -0.9537 O   0  0  0  0  0  0  0  0  0  0  0  0
    3.6634   -0.6036    2.4913 H   0  0  0  0  0  0  0  0  0  0  0  0
    2.3882   -1.1348    3.6654 H   0  0  0  0  0  0  0  0  0  0  0  0
    2.7346   -2.0773    2.1386 H   0  0  0  0  0  0  0  0  0  0  0  0
    1.8709    0.7471    1.8059 H   0  0  0  0  0  0  0  0  0  0  0  0
    0.5556    1.7324    0.8646 H   0  0  0  0  0  0  0  0  0  0  0  0
   -1.0133    1.9108   -0.0865 H   0  0  0  0  0  0  0  0  0  0  0  0
   -1.5914   -1.8050    0.2142 H   0  0  0  0  0  0  0  0  0  0  0  0
   -4.7060   -0.6606   -1.0875 H   0  0  0  0  0  0  0  0  0  0  0  0
   -3.7421   -2.1050   -0.5024 H   0  0  0  0  0  0  0  0  0  0  0  0
   -3.5076   -1.4141   -2.1909 H   0  0  0  0  0  0  0  0  0  0  0  0
  1  2  1  0
  1 11  1  0
  1 12  1  0
  1 13  1  0
  2  3  1  0
  2 14  1  0
  3  4  2  0
  3  5  1  0
  5  6  2  3
  5  7  1  0
  6 15  1  0
  6 16  1  0
  7  8  1  0
  7 17  1  0
  8  9  1  0
  8 10  2  0
  9 18  1  0
  9 19  1  0
  9 20  1  0
M  END

> <RosettaParamsInstructions>
M  ROOT 7
M  POLY_N_BB 7
M  POLY_CA_BB 5
M  POLY_C_BB 3
M  POLY_O_BB 4
M  POLY_IGNORE 1 10 9 14 11 12 13 18 19 20
M  POLY_UPPER 2
M  POLY_LOWER 8
M  POLY_CHG 0
M  POLY_PROPERTIES PROTEIN POLYMER ALPHA_AA ALIPHATIC
M  END

$$$$
DHA_new
     RDKit          3D

 20 19  0  0  0  0  0  0  0  0999 V2000
    2.6861   -1.0892    2.5717 C   0  0  0  0  0  0  0  0  0  0  0  0
    1.7276   -0.2437    1.8216 N   0  0  0  0  0  0  0  0  0  0  0  0
    0.5648   -0.8361    1.3079 C   0  0  0  0  0  0  0  0  0  0  0  0
    0.3608   -2.0734    1.4952 O   0  0  0  0  0  0  0  0  0  0  0  0
   -0.4351   -0.0830    0.5570 C   0  0  0  0  0  0  0  0  0  0  0  0
   -0.2771    1.2039    0.3315 C   0  0  0  0  0  0  0  0  0  0  0  0
   -1.5797   -0.7710    0.0770 N   0  0  0  0  0  0  0  0  0  0  0  0
   -2.6472   -0.2253   -0.6614 C   0  0  0  0  0  0  0  0  0  0  0  0
   -3.7619   -1.1455   -1.0679 C   0  0  0  0  0  0  0  0  0  0  0  0
   -2.7601    0.9572   -1.0149 O   0  0  0  0  0  0  0  0  0  0  0  0
    3.4272   -1.4224    1.8305 H   0  0  0  0  0  0  0  0  0  0  0  0
    2.1139   -1.8969    3.0472 H   0  0  0  0  0  0  0  0  0  0  0  0
    3.1331   -0.4748    3.3917 H   0  0  0  0  0  0  0  0  0  0  0  0
    1.9321    0.7560    1.6928 H   0  0  0  0  0  0  0  0  0  0  0  0
   -0.9464    1.8500   -0.2060 H   0  0  0  0  0  0  0  0  0  0  0  0
    0.6073    1.7224    0.7056 H   0  0  0  0  0  0  0  0  0  0  0  0
   -1.6266   -1.8277    0.3091 H   0  0  0  0  0  0  0  0  0  0  0  0
   -4.7083   -0.5598   -0.9566 H   0  0  0  0  0  0  0  0  0  0  0  0
   -3.6553   -1.4904   -2.0982 H   0  0  0  0  0  0  0  0  0  0  0  0
   -3.7616   -2.0026   -0.3929 H   0  0  0  0  0  0  0  0  0  0  0  0
  1  2  1  0
  1 11  1  0
  1 12  1  0
  1 13  1  0
  2  3  1  0
  2 14  1  0
  3  4  2  0
  3  5  1  0
  5  6  2  3
  5  7  1  0
  6 15  1  0
  6 16  1  0
  7  8  1  0
  7 17  1  0
  8  9  1  0
  8 10  2  0
  9 18  1  0
  9 19  1  0
  9 20  1  0
M  END

> <RosettaParamsInstructions>
M  ROOT 7
M  POLY_N_BB 7
M  POLY_CA_BB 5
M  POLY_C_BB 3
M  POLY_O_BB 4
M  POLY_IGNORE 1 10 9 14 11 12 13 18 19 20
M  POLY_UPPER 2
M  POLY_LOWER 8
M  POLY_CHG 0
M  POLY_PROPERTIES PROTEIN POLYMER ALPHA_AA ALIPHATIC
M  END

$$$$
DHA_new
     RDKit          3D

 20 19  0  0  0  0  0  0  0  0999 V2000
    2.6776   -1.0525    2.6011 C   0  0  0  0  0  0  0  0  0  0  0  0
    1.7159   -0.2429    1.8322 N   0  0  0  0  0  0  0  0  0  0  0  0
    0.5581   -0.8360    1.3306 C   0  0  0  0  0  0  0  0  0  0  0  0
    0.3437   -2.0562    1.5379 O   0  0  0  0  0  0  0  0  0  0  0  0
   -0.4340   -0.0889    0.5612 C   0  0  0  0  0  0  0  0  0  0  0  0
   -0.2338    1.1885    0.3303 C   0  0  0  0  0  0  0  0  0  0  0  0
   -1.5912   -0.7312    0.0732 N   0  0  0  0  0  0  0  0  0  0  0  0
   -2.6627   -0.2464   -0.6707 C   0  0  0  0  0  0  0  0  0  0  0  0
   -3.8064   -1.1429   -1.0824 C   0  0  0  0  0  0  0  0  0  0  0  0
   -2.7408    0.9446   -1.0374 O   0  0  0  0  0  0  0  0  0  0  0  0
    3.5336   -1.2646    1.9326 H   0  0  0  0  0  0  0  0  0  0  0  0
    2.1671   -2.0075    2.9082 H   0  0  0  0  0  0  0  0  0  0  0  0
    2.9689   -0.4430    3.4783 H   0  0  0  0  0  0  0  0  0  0  0  0
    1.9738    0.7405    1.7137 H   0  0  0  0  0  0  0  0  0  0  0  0
   -0.9441    1.7683   -0.2327 H   0  0  0  0  0  0  0  0  0  0  0  0
    0.6748    1.6748    0.7184 H   0  0  0  0  0  0  0  0  0  0  0  0
   -1.6257   -1.7850    0.3384 H   0  0  0  0  0  0  0  0  0  0  0  0
   -4.7091   -0.5567   -1.2693 H   0  0  0  0  0  0  0  0  0  0  0  0
   -3.5054   -1.6255   -2.0373 H   0  0  0  0  0  0  0  0  0  0  0  0
   -3.9668   -1.8896   -0.2855 H   0  0  0  0  0  0  0  0  0  0  0  0
  1  2  1  0
  1 11  1  0
  1 12  1  0
  1 13  1  0
  2  3  1  0
  2 14  1  0
  3  4  2  0
  3  5  1  0
  5  6  2  3
  5  7  1  0
  6 15  1  0
  6 16  1  0
  7  8  1  0
  7 17  1  0
  8  9  1  0
  8 10  2  0
  9 18  1  0
  9 19  1  0
  9 20  1  0
M  END

> <RosettaParamsInstructions>
M  ROOT 7
M  POLY_N_BB 7
M  POLY_CA_BB 5
M  POLY_C_BB 3
M  POLY_O_BB 4
M  POLY_IGNORE 1 10 9 14 11 12 13 18 19 20
M  POLY_UPPER 2
M  POLY_LOWER 8
M  POLY_CHG 0
M  POLY_PROPERTIES PROTEIN POLYMER ALPHA_AA ALIPHATIC
M  END

$$$$
DHA_new
     RDKit          3D

 20 19  0  0  0  0  0  0  0  0999 V2000
    2.7061   -1.0798    2.4847 C   0  0  0  0  0  0  0  0  0  0  0  0
    1.6791   -0.2434    1.8446 N   0  0  0  0  0  0  0  0  0  0  0  0
    0.5893   -0.8568    1.2665 C   0  0  0  0  0  0  0  0  0  0  0  0
    0.4843   -2.1192    1.2918 O   0  0  0  0  0  0  0  0  0  0  0  0
   -0.4918   -0.0984    0.6009 C   0  0  0  0  0  0  0  0  0  0  0  0
   -0.3957    1.2061    0.5677 C   0  0  0  0  0  0  0  0  0  0  0  0
   -1.5751   -0.7963    0.0322 N   0  0  0  0  0  0  0  0  0  0  0  0
   -2.6529   -0.2144   -0.6196 C   0  0  0  0  0  0  0  0  0  0  0  0
   -3.7188   -1.1499   -1.1625 C   0  0  0  0  0  0  0  0  0  0  0  0
   -2.8295    1.0075   -0.8022 O   0  0  0  0  0  0  0  0  0  0  0  0
    3.6670   -0.5803    2.3222 H   0  0  0  0  0  0  0  0  0  0  0  0
    2.4970   -1.0592    3.5739 H   0  0  0  0  0  0  0  0  0  0  0  0
    2.6793   -2.0878    2.0639 H   0  0  0  0  0  0  0  0  0  0  0  0
    1.8107    0.7785    1.8505 H   0  0  0  0  0  0  0  0  0  0  0  0
    0.4553    1.7443    1.0152 H   0  0  0  0  0  0  0  0  0  0  0  0
   -1.1035    1.8925    0.1191 H   0  0  0  0  0  0  0  0  0  0  0  0
   -1.5446   -1.8473    0.1203 H   0  0  0  0  0  0  0  0  0  0  0  0
   -3.7905   -2.0060   -0.4684 H   0  0  0  0  0  0  0  0  0  0  0  0
   -4.6821   -0.5965   -1.2169 H   0  0  0  0  0  0  0  0  0  0  0  0
   -3.3901   -1.5458   -2.1429 H   0  0  0  0  0  0  0  0  0  0  0  0
  1  2  1  0
  1 11  1  0
  1 12  1  0
  1 13  1  0
  2  3  1  0
  2 14  1  0
  3  4  2  0
  3  5  1  0
  5  6  2  3
  5  7  1  0
  6 15  1  0
  6 16  1  0
  7  8  1  0
  7 17  1  0
  8  9  1  0
  8 10  2  0
  9 18  1  0
  9 19  1  0
  9 20  1  0
M  END

> <RosettaParamsInstructions>
M  ROOT 7
M  POLY_N_BB 7
M  POLY_CA_BB 5
M  POLY_C_BB 3
M  POLY_O_BB 4
M  POLY_IGNORE 1 10 9 14 11 12 13 18 19 20
M  POLY_UPPER 2
M  POLY_LOWER 8
M  POLY_CHG 0
M  POLY_PROPERTIES PROTEIN POLYMER ALPHA_AA ALIPHATIC
M  END

$$$$
DHA_new
     RDKit          3D

 20 19  0  0  0  0  0  0  0  0999 V2000
    2.6594   -1.0409    2.5555 C   0  0  0  0  0  0  0  0  0  0  0  0
    1.6755   -0.2396    1.8540 N   0  0  0  0  0  0  0  0  0  0  0  0
    0.5594   -0.8305    1.2939 C   0  0  0  0  0  0  0  0  0  0  0  0
    0.4034   -2.0732    1.3980 O   0  0  0  0  0  0  0  0  0  0  0  0
   -0.4504   -0.0654    0.5829 C   0  0  0  0  0  0  0  0  0  0  0  0
   -0.3026    1.2349    0.4649 C   0  0  0  0  0  0  0  0  0  0  0  0
   -1.5394   -0.7892    0.0596 N   0  0  0  0  0  0  0  0  0  0  0  0
   -2.6238   -0.2621   -0.6577 C   0  0  0  0  0  0  0  0  0  0  0  0
   -3.7274   -1.1620   -1.1618 C   0  0  0  0  0  0  0  0  0  0  0  0
   -2.7956    0.9445   -0.9479 O   0  0  0  0  0  0  0  0  0  0  0  0
    3.5037   -1.3360    1.8965 H   0  0  0  0  0  0  0  0  0  0  0  0
    3.0018   -0.4747    3.4364 H   0  0  0  0  0  0  0  0  0  0  0  0
    2.1772   -2.0000    2.9018 H   0  0  0  0  0  0  0  0  0  0  0  0
    1.8602    0.7653    1.8040 H   0  0  0  0  0  0  0  0  0  0  0  0
   -1.0235    1.8455   -0.0528 H   0  0  0  0  0  0  0  0  0  0  0  0
    0.5433    1.7701    0.8756 H   0  0  0  0  0  0  0  0  0  0  0  0
   -1.5591   -1.8401    0.2133 H   0  0  0  0  0  0  0  0  0  0  0  0
   -3.6057   -2.1425   -0.6650 H   0  0  0  0  0  0  0  0  0  0  0  0
   -3.6711   -1.1998   -2.2516 H   0  0  0  0  0  0  0  0  0  0  0  0
   -4.6921   -0.7562   -0.8588 H   0  0  0  0  0  0  0  0  0  0  0  0
  1  2  1  0
  1 11  1  0
  1 12  1  0
  1 13  1  0
  2  3  1  0
  2 14  1  0
  3  4  2  0
  3  5  1  0
  5  6  2  3
  5  7  1  0
  6 15  1  0
  6 16  1  0
  7  8  1  0
  7 17  1  0
  8  9  1  0
  8 10  2  0
  9 18  1  0
  9 19  1  0
  9 20  1  0
M  END

> <RosettaParamsInstructions>
M  ROOT 7
M  POLY_N_BB 7
M  POLY_CA_BB 5
M  POLY_C_BB 3
M  POLY_O_BB 4
M  POLY_IGNORE 1 10 9 14 11 12 13 18 19 20
M  POLY_UPPER 2
M  POLY_LOWER 8
M  POLY_CHG 0
M  POLY_PROPERTIES PROTEIN POLYMER ALPHA_AA ALIPHATIC
M  END

$$$$
DHA_new
     RDKit          3D

 20 19  0  0  0  0  0  0  0  0999 V2000
    2.4519   -1.2166    2.4856 C   0  0  0  0  0  0  0  0  0  0  0  0
    1.6002   -0.2345    1.8332 N   0  0  0  0  0  0  0  0  0  0  0  0
    0.3753   -0.5858    1.1662 C   0  0  0  0  0  0  0  0  0  0  0  0
    0.1359   -1.8349    1.2175 O   0  0  0  0  0  0  0  0  0  0  0  0
   -0.4960    0.3449    0.5102 C   0  0  0  0  0  0  0  0  0  0  0  0
   -0.1553    1.6453    0.5107 C   0  0  0  0  0  0  0  0  0  0  0  0
   -1.6855   -0.0537   -0.1287 N   0  0  0  0  0  0  0  0  0  0  0  0
   -2.2790   -1.2865   -0.2884 C   0  0  0  0  0  0  0  0  0  0  0  0
   -3.5999   -1.3371   -1.0581 C   0  0  0  0  0  0  0  0  0  0  0  0
   -1.9078   -2.3989    0.1012 O   0  0  0  0  0  0  0  0  0  0  0  0
    1.9378   -2.1927    2.4871 H   0  0  0  0  0  0  0  0  0  0  0  0
    3.3565   -1.3285    1.8661 H   0  0  0  0  0  0  0  0  0  0  0  0
    2.6604   -0.9042    3.5274 H   0  0  0  0  0  0  0  0  0  0  0  0
    1.8859    0.7469    1.8504 H   0  0  0  0  0  0  0  0  0  0  0  0
   -0.7907    2.3796    0.0238 H   0  0  0  0  0  0  0  0  0  0  0  0
    0.7331    1.9594    0.9854 H   0  0  0  0  0  0  0  0  0  0  0  0
   -2.2208    0.7729   -0.5709 H   0  0  0  0  0  0  0  0  0  0  0  0
   -3.4260   -2.1081   -1.8434 H   0  0  0  0  0  0  0  0  0  0  0  0
   -3.7782   -0.3921   -1.5799 H   0  0  0  0  0  0  0  0  0  0  0  0
   -4.4042   -1.6276   -0.3546 H   0  0  0  0  0  0  0  0  0  0  0  0
  1  2  1  0
  1 11  1  0
  1 12  1  0
  1 13  1  0
  2  3  1  0
  2 14  1  0
  3  4  2  0
  3  5  1  0
  5  6  2  3
  5  7  1  0
  6 15  1  0
  6 16  1  0
  7  8  1  0
  7 17  1  0
  8  9  1  0
  8 10  2  0
  9 18  1  0
  9 19  1  0
  9 20  1  0
M  END

> <RosettaParamsInstructions>
M  ROOT 7
M  POLY_N_BB 7
M  POLY_CA_BB 5
M  POLY_C_BB 3
M  POLY_O_BB 4
M  POLY_IGNORE 1 10 9 14 11 12 13 18 19 20
M  POLY_UPPER 2
M  POLY_LOWER 8
M  POLY_CHG 0
M  POLY_PROPERTIES PROTEIN POLYMER ALPHA_AA ALIPHATIC
M  END

$$$$
DHA_new
     RDKit          3D

 20 19  0  0  0  0  0  0  0  0999 V2000
    2.6708   -1.0506    2.5575 C   0  0  0  0  0  0  0  0  0  0  0  0
    1.7152   -0.2048    1.8056 N   0  0  0  0  0  0  0  0  0  0  0  0
    0.5781   -0.8397    1.3202 C   0  0  0  0  0  0  0  0  0  0  0  0
    0.3931   -2.0662    1.5213 O   0  0  0  0  0  0  0  0  0  0  0  0
   -0.4444   -0.0880    0.5539 C   0  0  0  0  0  0  0  0  0  0  0  0
   -0.2712    1.1876    0.3339 C   0  0  0  0  0  0  0  0  0  0  0  0
   -1.5940   -0.7967    0.0798 N   0  0  0  0  0  0  0  0  0  0  0  0
   -2.6357   -0.2398   -0.6488 C   0  0  0  0  0  0  0  0  0  0  0  0
   -3.7799   -1.1442   -1.0710 C   0  0  0  0  0  0  0  0  0  0  0  0
   -2.7366    0.9329   -0.9983 O   0  0  0  0  0  0  0  0  0  0  0  0
    2.7160   -2.0253    2.0340 H   0  0  0  0  0  0  0  0  0  0  0  0
    2.2770   -1.2521    3.5781 H   0  0  0  0  0  0  0  0  0  0  0  0
    3.6442   -0.5607    2.6316 H   0  0  0  0  0  0  0  0  0  0  0  0
    1.9548    0.7989    1.6909 H   0  0  0  0  0  0  0  0  0  0  0  0
    0.6263    1.7026    0.7135 H   0  0  0  0  0  0  0  0  0  0  0  0
   -0.9463    1.8131   -0.2043 H   0  0  0  0  0  0  0  0  0  0  0  0
   -1.5950   -1.8323    0.3375 H   0  0  0  0  0  0  0  0  0  0  0  0
   -4.7161   -0.5701   -0.9542 H   0  0  0  0  0  0  0  0  0  0  0  0
   -3.6482   -1.4103   -2.1402 H   0  0  0  0  0  0  0  0  0  0  0  0
   -3.8147   -2.0066   -0.4002 H   0  0  0  0  0  0  0  0  0  0  0  0
  1  2  1  0
  1 11  1  0
  1 12  1  0
  1 13  1  0
  2  3  1  0
  2 14  1  0
  3  4  2  0
  3  5  1  0
  5  6  2  3
  5  7  1  0
  6 15  1  0
  6 16  1  0
  7  8  1  0
  7 17  1  0
  8  9  1  0
  8 10  2  0
  9 18  1  0
  9 19  1  0
  9 20  1  0
M  END

> <RosettaParamsInstructions>
M  ROOT 7
M  POLY_N_BB 7
M  POLY_CA_BB 5
M  POLY_C_BB 3
M  POLY_O_BB 4
M  POLY_IGNORE 1 10 9 14 11 12 13 18 19 20
M  POLY_UPPER 2
M  POLY_LOWER 8
M  POLY_CHG 0
M  POLY_PROPERTIES PROTEIN POLYMER ALPHA_AA ALIPHATIC
M  END

$$$$
DHA_new
     RDKit          3D

 20 19  0  0  0  0  0  0  0  0999 V2000
    2.6783   -1.0495    2.5817 C   0  0  0  0  0  0  0  0  0  0  0  0
    1.7034   -0.2449    1.8368 N   0  0  0  0  0  0  0  0  0  0  0  0
    0.5573   -0.8268    1.3158 C   0  0  0  0  0  0  0  0  0  0  0  0
    0.3707   -2.0630    1.4961 O   0  0  0  0  0  0  0  0  0  0  0  0
   -0.4598   -0.0972    0.5642 C   0  0  0  0  0  0  0  0  0  0  0  0
   -0.3014    1.1816    0.3578 C   0  0  0  0  0  0  0  0  0  0  0  0
   -1.5906   -0.7824    0.0761 N   0  0  0  0  0  0  0  0  0  0  0  0
   -2.6387   -0.2501   -0.6474 C   0  0  0  0  0  0  0  0  0  0  0  0
   -3.7899   -1.1385   -1.1000 C   0  0  0  0  0  0  0  0  0  0  0  0
   -2.7603    0.9278   -0.9906 O   0  0  0  0  0  0  0  0  0  0  0  0
    3.6143   -1.1739    1.9732 H   0  0  0  0  0  0  0  0  0  0  0  0
    2.2313   -2.0414    2.7912 H   0  0  0  0  0  0  0  0  0  0  0  0
    2.9397   -0.5182    3.5034 H   0  0  0  0  0  0  0  0  0  0  0  0
    1.9440    0.7554    1.7422 H   0  0  0  0  0  0  0  0  0  0  0  0
   -1.0011    1.8128   -0.1893 H   0  0  0  0  0  0  0  0  0  0  0  0
    0.6062    1.6602    0.7662 H   0  0  0  0  0  0  0  0  0  0  0  0
   -1.6083   -1.8255    0.3082 H   0  0  0  0  0  0  0  0  0  0  0  0
   -3.4138   -2.1639   -1.1049 H   0  0  0  0  0  0  0  0  0  0  0  0
   -4.6201   -0.9552   -0.4175 H   0  0  0  0  0  0  0  0  0  0  0  0
   -4.0675   -0.8593   -2.1223 H   0  0  0  0  0  0  0  0  0  0  0  0
  1  2  1  0
  1 11  1  0
  1 12  1  0
  1 13  1  0
  2  3  1  0
  2 14  1  0
  3  4  2  0
  3  5  1  0
  5  6  2  3
  5  7  1  0
  6 15  1  0
  6 16  1  0
  7  8  1  0
  7 17  1  0
  8  9  1  0
  8 10  2  0
  9 18  1  0
  9 19  1  0
  9 20  1  0
M  END

> <RosettaParamsInstructions>
M  ROOT 7
M  POLY_N_BB 7
M  POLY_CA_BB 5
M  POLY_C_BB 3
M  POLY_O_BB 4
M  POLY_IGNORE 1 10 9 14 11 12 13 18 19 20
M  POLY_UPPER 2
M  POLY_LOWER 8
M  POLY_CHG 0
M  POLY_PROPERTIES PROTEIN POLYMER ALPHA_AA ALIPHATIC
M  END

$$$$
DHA_new
     RDKit          3D

 20 19  0  0  0  0  0  0  0  0999 V2000
    2.6852   -1.0749    2.5459 C   0  0  0  0  0  0  0  0  0  0  0  0
    1.7298   -0.2247    1.8014 N   0  0  0  0  0  0  0  0  0  0  0  0
    0.5893   -0.8285    1.3103 C   0  0  0  0  0  0  0  0  0  0  0  0
    0.3702   -2.0636    1.4908 O   0  0  0  0  0  0  0  0  0  0  0  0
   -0.4354   -0.0814    0.5522 C   0  0  0  0  0  0  0  0  0  0  0  0
   -0.2304    1.1928    0.3542 C   0  0  0  0  0  0  0  0  0  0  0  0
   -1.5816   -0.7573    0.0757 N   0  0  0  0  0  0  0  0  0  0  0  0
   -2.6614   -0.2524   -0.6537 C   0  0  0  0  0  0  0  0  0  0  0  0
   -3.8061   -1.1623   -1.0719 C   0  0  0  0  0  0  0  0  0  0  0  0
   -2.7396    0.9477   -0.9923 O   0  0  0  0  0  0  0  0  0  0  0  0
    3.1478   -1.7870    1.8616 H   0  0  0  0  0  0  0  0  0  0  0  0
    2.0740   -1.5842    3.3238 H   0  0  0  0  0  0  0  0  0  0  0  0
    3.4200   -0.4306    3.0843 H   0  0  0  0  0  0  0  0  0  0  0  0
    1.9564    0.7715    1.6837 H   0  0  0  0  0  0  0  0  0  0  0  0
    0.6469    1.7115    0.7187 H   0  0  0  0  0  0  0  0  0  0  0  0
   -0.9157    1.8382   -0.1885 H   0  0  0  0  0  0  0  0  0  0  0  0
   -1.6308   -1.8002    0.3043 H   0  0  0  0  0  0  0  0  0  0  0  0
   -4.7633   -0.6284   -0.8964 H   0  0  0  0  0  0  0  0  0  0  0  0
   -3.7046   -1.3964   -2.1491 H   0  0  0  0  0  0  0  0  0  0  0  0
   -3.7572   -2.0420   -0.4140 H   0  0  0  0  0  0  0  0  0  0  0  0
  1  2  1  0
  1 11  1  0
  1 12  1  0
  1 13  1  0
  2  3  1  0
  2 14  1  0
  3  4  2  0
  3  5  1  0
  5  6  2  3
  5  7  1  0
  6 15  1  0
  6 16  1  0
  7  8  1  0
  7 17  1  0
  8  9  1  0
  8 10  2  0
  9 18  1  0
  9 19  1  0
  9 20  1  0
M  END

> <RosettaParamsInstructions>
M  ROOT 7
M  POLY_N_BB 7
M  POLY_CA_BB 5
M  POLY_C_BB 3
M  POLY_O_BB 4
M  POLY_IGNORE 1 10 9 14 11 12 13 18 19 20
M  POLY_UPPER 2
M  POLY_LOWER 8
M  POLY_CHG 0
M  POLY_PROPERTIES PROTEIN POLYMER ALPHA_AA ALIPHATIC
M  END

$$$$
DHA_new
     RDKit          3D

 20 19  0  0  0  0  0  0  0  0999 V2000
    2.6534   -1.0503    2.5674 C   0  0  0  0  0  0  0  0  0  0  0  0
    1.7046   -0.2142    1.8050 N   0  0  0  0  0  0  0  0  0  0  0  0
    0.5520   -0.8339    1.3132 C   0  0  0  0  0  0  0  0  0  0  0  0
    0.3674   -2.0712    1.5368 O   0  0  0  0  0  0  0  0  0  0  0  0
   -0.4434   -0.0904    0.5488 C   0  0  0  0  0  0  0  0  0  0  0  0
   -0.2476    1.1829    0.3219 C   0  0  0  0  0  0  0  0  0  0  0  0
   -1.5689   -0.7930    0.0945 N   0  0  0  0  0  0  0  0  0  0  0  0
   -2.6134   -0.2448   -0.6460 C   0  0  0  0  0  0  0  0  0  0  0  0
   -3.7820   -1.1320   -1.0757 C   0  0  0  0  0  0  0  0  0  0  0  0
   -2.7189    0.9446   -1.0221 O   0  0  0  0  0  0  0  0  0  0  0  0
    2.6215   -2.0464    2.1031 H   0  0  0  0  0  0  0  0  0  0  0  0
    2.2917   -1.1597    3.6070 H   0  0  0  0  0  0  0  0  0  0  0  0
    3.6351   -0.5804    2.5770 H   0  0  0  0  0  0  0  0  0  0  0  0
    1.9644    0.7644    1.6938 H   0  0  0  0  0  0  0  0  0  0  0  0
    0.6496    1.6932    0.6973 H   0  0  0  0  0  0  0  0  0  0  0  0
   -0.9168    1.8331   -0.2319 H   0  0  0  0  0  0  0  0  0  0  0  0
   -1.6239   -1.8298    0.3387 H   0  0  0  0  0  0  0  0  0  0  0  0
   -4.7052   -0.5492   -1.0590 H   0  0  0  0  0  0  0  0  0  0  0  0
   -3.8571   -1.9592   -0.3343 H   0  0  0  0  0  0  0  0  0  0  0  0
   -3.5691   -1.5160   -2.0945 H   0  0  0  0  0  0  0  0  0  0  0  0
  1  2  1  0
  1 11  1  0
  1 12  1  0
  1 13  1  0
  2  3  1  0
  2 14  1  0
  3  4  2  0
  3  5  1  0
  5  6  2  3
  5  7  1  0
  6 15  1  0
  6 16  1  0
  7  8  1  0
  7 17  1  0
  8  9  1  0
  8 10  2  0
  9 18  1  0
  9 19  1  0
  9 20  1  0
M  END

> <RosettaParamsInstructions>
M  ROOT 7
M  POLY_N_BB 7
M  POLY_CA_BB 5
M  POLY_C_BB 3
M  POLY_O_BB 4
M  POLY_IGNORE 1 10 9 14 11 12 13 18 19 20
M  POLY_UPPER 2
M  POLY_LOWER 8
M  POLY_CHG 0
M  POLY_PROPERTIES PROTEIN POLYMER ALPHA_AA ALIPHATIC
M  END

$$$$
DHA_new
     RDKit          3D

 20 19  0  0  0  0  0  0  0  0999 V2000
    2.6398   -1.0705    2.5866 C   0  0  0  0  0  0  0  0  0  0  0  0
    1.6745   -0.2226    1.8726 N   0  0  0  0  0  0  0  0  0  0  0  0
    0.5650   -0.8257    1.3129 C   0  0  0  0  0  0  0  0  0  0  0  0
    0.4032   -2.0753    1.4235 O   0  0  0  0  0  0  0  0  0  0  0  0
   -0.4630   -0.0771    0.5781 C   0  0  0  0  0  0  0  0  0  0  0  0
   -0.3380    1.2215    0.4377 C   0  0  0  0  0  0  0  0  0  0  0  0
   -1.5497   -0.7697    0.0468 N   0  0  0  0  0  0  0  0  0  0  0  0
   -2.6060   -0.2274   -0.6706 C   0  0  0  0  0  0  0  0  0  0  0  0
   -3.7136   -1.1606   -1.1745 C   0  0  0  0  0  0  0  0  0  0  0  0
   -2.8126    0.9621   -0.9902 O   0  0  0  0  0  0  0  0  0  0  0  0
    2.3307   -1.2450    3.6342 H   0  0  0  0  0  0  0  0  0  0  0  0
    2.7992   -2.0157    2.0178 H   0  0  0  0  0  0  0  0  0  0  0  0
    3.6148   -0.5467    2.6133 H   0  0  0  0  0  0  0  0  0  0  0  0
    1.8566    0.7852    1.8141 H   0  0  0  0  0  0  0  0  0  0  0  0
    0.5295    1.7220    0.8704 H   0  0  0  0  0  0  0  0  0  0  0  0
   -1.0813    1.7717   -0.0952 H   0  0  0  0  0  0  0  0  0  0  0  0
   -1.5528   -1.8321    0.2207 H   0  0  0  0  0  0  0  0  0  0  0  0
   -3.6565   -1.1880   -2.2715 H   0  0  0  0  0  0  0  0  0  0  0  0
   -4.6443   -0.7065   -0.7937 H   0  0  0  0  0  0  0  0  0  0  0  0
   -3.6020   -2.1516   -0.6922 H   0  0  0  0  0  0  0  0  0  0  0  0
  1  2  1  0
  1 11  1  0
  1 12  1  0
  1 13  1  0
  2  3  1  0
  2 14  1  0
  3  4  2  0
  3  5  1  0
  5  6  2  3
  5  7  1  0
  6 15  1  0
  6 16  1  0
  7  8  1  0
  7 17  1  0
  8  9  1  0
  8 10  2  0
  9 18  1  0
  9 19  1  0
  9 20  1  0
M  END

> <RosettaParamsInstructions>
M  ROOT 7
M  POLY_N_BB 7
M  POLY_CA_BB 5
M  POLY_C_BB 3
M  POLY_O_BB 4
M  POLY_IGNORE 1 10 9 14 11 12 13 18 19 20
M  POLY_UPPER 2
M  POLY_LOWER 8
M  POLY_CHG 0
M  POLY_PROPERTIES PROTEIN POLYMER ALPHA_AA ALIPHATIC
M  END

$$$$
DHA_new
     RDKit          3D

 20 19  0  0  0  0  0  0  0  0999 V2000
    2.6931   -1.1137    2.5718 C   0  0  0  0  0  0  0  0  0  0  0  0
    1.7124   -0.2620    1.8703 N   0  0  0  0  0  0  0  0  0  0  0  0
    0.5678   -0.7975    1.2899 C   0  0  0  0  0  0  0  0  0  0  0  0
    0.4119   -2.0652    1.3970 O   0  0  0  0  0  0  0  0  0  0  0  0
   -0.4669   -0.0434    0.5723 C   0  0  0  0  0  0  0  0  0  0  0  0
   -0.3469    1.2483    0.4407 C   0  0  0  0  0  0  0  0  0  0  0  0
   -1.5659   -0.7421    0.0438 N   0  0  0  0  0  0  0  0  0  0  0  0
   -2.6518   -0.2271   -0.6662 C   0  0  0  0  0  0  0  0  0  0  0  0
   -3.7231   -1.1705   -1.1405 C   0  0  0  0  0  0  0  0  0  0  0  0
   -2.8287    0.9790   -0.9567 O   0  0  0  0  0  0  0  0  0  0  0  0
    3.6773   -0.6271    2.4707 H   0  0  0  0  0  0  0  0  0  0  0  0
    2.4245   -1.0487    3.6543 H   0  0  0  0  0  0  0  0  0  0  0  0
    2.6504   -2.1435    2.1958 H   0  0  0  0  0  0  0  0  0  0  0  0
    1.9000    0.7595    1.8199 H   0  0  0  0  0  0  0  0  0  0  0  0
   -1.0421    1.8781   -0.0606 H   0  0  0  0  0  0  0  0  0  0  0  0
    0.5321    1.7576    0.8711 H   0  0  0  0  0  0  0  0  0  0  0  0
   -1.5824   -1.8040    0.1997 H   0  0  0  0  0  0  0  0  0  0  0  0
   -3.3765   -2.2259   -1.1047 H   0  0  0  0  0  0  0  0  0  0  0  0
   -3.9462   -0.9348   -2.1918 H   0  0  0  0  0  0  0  0  0  0  0  0
   -4.6456   -1.0692   -0.5360 H   0  0  0  0  0  0  0  0  0  0  0  0
  1  2  1  0
  1 11  1  0
  1 12  1  0
  1 13  1  0
  2  3  1  0
  2 14  1  0
  3  4  2  0
  3  5  1  0
  5  6  2  3
  5  7  1  0
  6 15  1  0
  6 16  1  0
  7  8  1  0
  7 17  1  0
  8  9  1  0
  8 10  2  0
  9 18  1  0
  9 19  1  0
  9 20  1  0
M  END

> <RosettaParamsInstructions>
M  ROOT 7
M  POLY_N_BB 7
M  POLY_CA_BB 5
M  POLY_C_BB 3
M  POLY_O_BB 4
M  POLY_IGNORE 1 10 9 14 11 12 13 18 19 20
M  POLY_UPPER 2
M  POLY_LOWER 8
M  POLY_CHG 0
M  POLY_PROPERTIES PROTEIN POLYMER ALPHA_AA ALIPHATIC
M  END

$$$$
DHA_new
     RDKit          3D

 20 19  0  0  0  0  0  0  0  0999 V2000
    2.7611   -1.0322    2.5067 C   0  0  0  0  0  0  0  0  0  0  0  0
    1.6968   -0.2528    1.8547 N   0  0  0  0  0  0  0  0  0  0  0  0
    0.6003   -0.8622    1.2732 C   0  0  0  0  0  0  0  0  0  0  0  0
    0.4826   -2.1453    1.2886 O   0  0  0  0  0  0  0  0  0  0  0  0
   -0.4792   -0.1007    0.6138 C   0  0  0  0  0  0  0  0  0  0  0  0
   -0.4175    1.1966    0.5659 C   0  0  0  0  0  0  0  0  0  0  0  0
   -1.5688   -0.7968    0.0417 N   0  0  0  0  0  0  0  0  0  0  0  0
   -2.6621   -0.2307   -0.6130 C   0  0  0  0  0  0  0  0  0  0  0  0
   -3.7650   -1.1083   -1.1811 C   0  0  0  0  0  0  0  0  0  0  0  0
   -2.8748    0.9916   -0.8115 O   0  0  0  0  0  0  0  0  0  0  0  0
    2.7105   -2.0727    2.1384 H   0  0  0  0  0  0  0  0  0  0  0  0
    3.7418   -0.5861    2.2905 H   0  0  0  0  0  0  0  0  0  0  0  0
    2.5891   -1.0574    3.6146 H   0  0  0  0  0  0  0  0  0  0  0  0
    1.8419    0.7619    1.8721 H   0  0  0  0  0  0  0  0  0  0  0  0
    0.4358    1.7040    1.0163 H   0  0  0  0  0  0  0  0  0  0  0  0
   -1.1294    1.8417    0.1219 H   0  0  0  0  0  0  0  0  0  0  0  0
   -1.5752   -1.8714    0.1068 H   0  0  0  0  0  0  0  0  0  0  0  0
   -4.5949   -1.2083   -0.4693 H   0  0  0  0  0  0  0  0  0  0  0  0
   -4.0828   -0.7141   -2.1567 H   0  0  0  0  0  0  0  0  0  0  0  0
   -3.3168   -2.1091   -1.3327 H   0  0  0  0  0  0  0  0  0  0  0  0
  1  2  1  0
  1 11  1  0
  1 12  1  0
  1 13  1  0
  2  3  1  0
  2 14  1  0
  3  4  2  0
  3  5  1  0
  5  6  2  3
  5  7  1  0
  6 15  1  0
  6 16  1  0
  7  8  1  0
  7 17  1  0
  8  9  1  0
  8 10  2  0
  9 18  1  0
  9 19  1  0
  9 20  1  0
M  END

> <RosettaParamsInstructions>
M  ROOT 7
M  POLY_N_BB 7
M  POLY_CA_BB 5
M  POLY_C_BB 3
M  POLY_O_BB 4
M  POLY_IGNORE 1 10 9 14 11 12 13 18 19 20
M  POLY_UPPER 2
M  POLY_LOWER 8
M  POLY_CHG 0
M  POLY_PROPERTIES PROTEIN POLYMER ALPHA_AA ALIPHATIC
M  END

$$$$
DHA_new
     RDKit          3D

 20 19  0  0  0  0  0  0  0  0999 V2000
    2.6737   -1.0832    2.5666 C   0  0  0  0  0  0  0  0  0  0  0  0
    1.6734   -0.2362    1.8866 N   0  0  0  0  0  0  0  0  0  0  0  0
    0.5505   -0.8104    1.2803 C   0  0  0  0  0  0  0  0  0  0  0  0
    0.4257   -2.0600    1.3351 O   0  0  0  0  0  0  0  0  0  0  0  0
   -0.4664   -0.0434    0.5987 C   0  0  0  0  0  0  0  0  0  0  0  0
   -0.3482    1.2633    0.5341 C   0  0  0  0  0  0  0  0  0  0  0  0
   -1.5530   -0.7544    0.0280 N   0  0  0  0  0  0  0  0  0  0  0  0
   -2.6448   -0.2476   -0.6712 C   0  0  0  0  0  0  0  0  0  0  0  0
   -3.6837   -1.2053   -1.1882 C   0  0  0  0  0  0  0  0  0  0  0  0
   -2.8092    0.9541   -0.8925 O   0  0  0  0  0  0  0  0  0  0  0  0
    3.4506   -0.4495    2.9863 H   0  0  0  0  0  0  0  0  0  0  0  0
    3.1355   -1.7981    1.8632 H   0  0  0  0  0  0  0  0  0  0  0  0
    2.1252   -1.6230    3.3664 H   0  0  0  0  0  0  0  0  0  0  0  0
    1.8121    0.7928    1.8627 H   0  0  0  0  0  0  0  0  0  0  0  0
   -1.0681    1.8935    0.0426 H   0  0  0  0  0  0  0  0  0  0  0  0
    0.4829    1.8188    0.9693 H   0  0  0  0  0  0  0  0  0  0  0  0
   -1.5372   -1.8188    0.1471 H   0  0  0  0  0  0  0  0  0  0  0  0
   -3.4107   -2.2557   -0.9756 H   0  0  0  0  0  0  0  0  0  0  0  0
   -3.7837   -1.0648   -2.3002 H   0  0  0  0  0  0  0  0  0  0  0  0
   -4.6310   -0.9243   -0.6986 H   0  0  0  0  0  0  0  0  0  0  0  0
  1  2  1  0
  1 11  1  0
  1 12  1  0
  1 13  1  0
  2  3  1  0
  2 14  1  0
  3  4  2  0
  3  5  1  0
  5  6  2  3
  5  7  1  0
  6 15  1  0
  6 16  1  0
  7  8  1  0
  7 17  1  0
  8  9  1  0
  8 10  2  0
  9 18  1  0
  9 19  1  0
  9 20  1  0
M  END

> <RosettaParamsInstructions>
M  ROOT 7
M  POLY_N_BB 7
M  POLY_CA_BB 5
M  POLY_C_BB 3
M  POLY_O_BB 4
M  POLY_IGNORE 1 10 9 14 11 12 13 18 19 20
M  POLY_UPPER 2
M  POLY_LOWER 8
M  POLY_CHG 0
M  POLY_PROPERTIES PROTEIN POLYMER ALPHA_AA ALIPHATIC
M  END

$$$$
DHA_new
     RDKit          3D

 20 19  0  0  0  0  0  0  0  0999 V2000
    2.6673   -1.0702    2.5631 C   0  0  0  0  0  0  0  0  0  0  0  0
    1.6848   -0.2333    1.8517 N   0  0  0  0  0  0  0  0  0  0  0  0
    0.5537   -0.8432    1.2991 C   0  0  0  0  0  0  0  0  0  0  0  0
    0.3980   -2.0830    1.4186 O   0  0  0  0  0  0  0  0  0  0  0  0
   -0.4693   -0.0772    0.5762 C   0  0  0  0  0  0  0  0  0  0  0  0
   -0.3405    1.2103    0.4329 C   0  0  0  0  0  0  0  0  0  0  0  0
   -1.5756   -0.7909    0.0554 N   0  0  0  0  0  0  0  0  0  0  0  0
   -2.6244   -0.2330   -0.6473 C   0  0  0  0  0  0  0  0  0  0  0  0
   -3.7323   -1.1334   -1.1375 C   0  0  0  0  0  0  0  0  0  0  0  0
   -2.7406    0.9639   -0.9173 O   0  0  0  0  0  0  0  0  0  0  0  0
    2.9520   -0.5049    3.4762 H   0  0  0  0  0  0  0  0  0  0  0  0
    2.1833   -2.0058    2.9002 H   0  0  0  0  0  0  0  0  0  0  0  0
    3.5037   -1.2100    1.8751 H   0  0  0  0  0  0  0  0  0  0  0  0
    1.9042    0.7758    1.8081 H   0  0  0  0  0  0  0  0  0  0  0  0
    0.5460    1.7135    0.8618 H   0  0  0  0  0  0  0  0  0  0  0  0
   -1.0126    1.8811   -0.0703 H   0  0  0  0  0  0  0  0  0  0  0  0
   -1.6232   -1.8572    0.2083 H   0  0  0  0  0  0  0  0  0  0  0  0
   -4.3967   -1.4383   -0.3071 H   0  0  0  0  0  0  0  0  0  0  0  0
   -3.2113   -2.0331   -1.5329 H   0  0  0  0  0  0  0  0  0  0  0  0
   -4.2731   -0.6834   -1.9735 H   0  0  0  0  0  0  0  0  0  0  0  0
  1  2  1  0
  1 11  1  0
  1 12  1  0
  1 13  1  0
  2  3  1  0
  2 14  1  0
  3  4  2  0
  3  5  1  0
  5  6  2  3
  5  7  1  0
  6 15  1  0
  6 16  1  0
  7  8  1  0
  7 17  1  0
  8  9  1  0
  8 10  2  0
  9 18  1  0
  9 19  1  0
  9 20  1  0
M  END

> <RosettaParamsInstructions>
M  ROOT 7
M  POLY_N_BB 7
M  POLY_CA_BB 5
M  POLY_C_BB 3
M  POLY_O_BB 4
M  POLY_IGNORE 1 10 9 14 11 12 13 18 19 20
M  POLY_UPPER 2
M  POLY_LOWER 8
M  POLY_CHG 0
M  POLY_PROPERTIES PROTEIN POLYMER ALPHA_AA ALIPHATIC
M  END

$$$$
DHA_new
     RDKit          3D

 20 19  0  0  0  0  0  0  0  0999 V2000
    2.7036   -1.0147    2.5926 C   0  0  0  0  0  0  0  0  0  0  0  0
    1.6891   -0.2230    1.8616 N   0  0  0  0  0  0  0  0  0  0  0  0
    0.5660   -0.8461    1.3142 C   0  0  0  0  0  0  0  0  0  0  0  0
    0.4351   -2.0922    1.4554 O   0  0  0  0  0  0  0  0  0  0  0  0
   -0.4688   -0.1022    0.5796 C   0  0  0  0  0  0  0  0  0  0  0  0
   -0.3041    1.2014    0.4481 C   0  0  0  0  0  0  0  0  0  0  0  0
   -1.5901   -0.8026    0.0468 N   0  0  0  0  0  0  0  0  0  0  0  0
   -2.6649   -0.2733   -0.6737 C   0  0  0  0  0  0  0  0  0  0  0  0
   -3.7865   -1.1533   -1.1753 C   0  0  0  0  0  0  0  0  0  0  0  0
   -2.7527    0.9329   -0.9357 O   0  0  0  0  0  0  0  0  0  0  0  0
    3.7053   -0.6352    2.3909 H   0  0  0  0  0  0  0  0  0  0  0  0
    2.6263   -2.0339    2.1999 H   0  0  0  0  0  0  0  0  0  0  0  0
    2.4514   -1.0500    3.6694 H   0  0  0  0  0  0  0  0  0  0  0  0
    1.9272    0.7861    1.8245 H   0  0  0  0  0  0  0  0  0  0  0  0
   -0.9796    1.8700   -0.0633 H   0  0  0  0  0  0  0  0  0  0  0  0
    0.5639    1.7199    0.8647 H   0  0  0  0  0  0  0  0  0  0  0  0
   -1.5674   -1.8596    0.2446 H   0  0  0  0  0  0  0  0  0  0  0  0
   -3.3747   -2.1202   -1.5495 H   0  0  0  0  0  0  0  0  0  0  0  0
   -4.3040   -0.6767   -2.0259 H   0  0  0  0  0  0  0  0  0  0  0  0
   -4.4816   -1.2794   -0.3280 H   0  0  0  0  0  0  0  0  0  0  0  0
  1  2  1  0
  1 11  1  0
  1 12  1  0
  1 13  1  0
  2  3  1  0
  2 14  1  0
  3  4  2  0
  3  5  1  0
  5  6  2  3
  5  7  1  0
  6 15  1  0
  6 16  1  0
  7  8  1  0
  7 17  1  0
  8  9  1  0
  8 10  2  0
  9 18  1  0
  9 19  1  0
  9 20  1  0
M  END

> <RosettaParamsInstructions>
M  ROOT 7
M  POLY_N_BB 7
M  POLY_CA_BB 5
M  POLY_C_BB 3
M  POLY_O_BB 4
M  POLY_IGNORE 1 10 9 14 11 12 13 18 19 20
M  POLY_UPPER 2
M  POLY_LOWER 8
M  POLY_CHG 0
M  POLY_PROPERTIES PROTEIN POLYMER ALPHA_AA ALIPHATIC
M  END

$$$$
DHA_new
     RDKit          3D

 20 19  0  0  0  0  0  0  0  0999 V2000
    2.6627   -1.0835    2.5771 C   0  0  0  0  0  0  0  0  0  0  0  0
    1.6772   -0.2498    1.8699 N   0  0  0  0  0  0  0  0  0  0  0  0
    0.5399   -0.8254    1.2900 C   0  0  0  0  0  0  0  0  0  0  0  0
    0.4129   -2.0926    1.4100 O   0  0  0  0  0  0  0  0  0  0  0  0
   -0.4619   -0.0514    0.5824 C   0  0  0  0  0  0  0  0  0  0  0  0
   -0.3179    1.2425    0.4683 C   0  0  0  0  0  0  0  0  0  0  0  0
   -1.5648   -0.7639    0.0437 N   0  0  0  0  0  0  0  0  0  0  0  0
   -2.6494   -0.2539   -0.6721 C   0  0  0  0  0  0  0  0  0  0  0  0
   -3.7521   -1.1447   -1.1833 C   0  0  0  0  0  0  0  0  0  0  0  0
   -2.7762    0.9496   -0.9314 O   0  0  0  0  0  0  0  0  0  0  0  0
    2.1455   -1.8316    3.2090 H   0  0  0  0  0  0  0  0  0  0  0  0
    3.2607   -0.4327    3.2372 H   0  0  0  0  0  0  0  0  0  0  0  0
    3.3475   -1.5460    1.8453 H   0  0  0  0  0  0  0  0  0  0  0  0
    1.8385    0.7685    1.8083 H   0  0  0  0  0  0  0  0  0  0  0  0
   -1.0157    1.8901   -0.0412 H   0  0  0  0  0  0  0  0  0  0  0  0
    0.5350    1.7942    0.8848 H   0  0  0  0  0  0  0  0  0  0  0  0
   -1.5970   -1.8353    0.1893 H   0  0  0  0  0  0  0  0  0  0  0  0
   -4.6750   -0.5944   -1.3672 H   0  0  0  0  0  0  0  0  0  0  0  0
   -3.8592   -1.9370   -0.3988 H   0  0  0  0  0  0  0  0  0  0  0  0
   -3.3572   -1.6549   -2.0806 H   0  0  0  0  0  0  0  0  0  0  0  0
  1  2  1  0
  1 11  1  0
  1 12  1  0
  1 13  1  0
  2  3  1  0
  2 14  1  0
  3  4  2  0
  3  5  1  0
  5  6  2  3
  5  7  1  0
  6 15  1  0
  6 16  1  0
  7  8  1  0
  7 17  1  0
  8  9  1  0
  8 10  2  0
  9 18  1  0
  9 19  1  0
  9 20  1  0
M  END

> <RosettaParamsInstructions>
M  ROOT 7
M  POLY_N_BB 7
M  POLY_CA_BB 5
M  POLY_C_BB 3
M  POLY_O_BB 4
M  POLY_IGNORE 1 10 9 14 11 12 13 18 19 20
M  POLY_UPPER 2
M  POLY_LOWER 8
M  POLY_CHG 0
M  POLY_PROPERTIES PROTEIN POLYMER ALPHA_AA ALIPHATIC
M  END

$$$$
DHA_new
     RDKit          3D

 20 19  0  0  0  0  0  0  0  0999 V2000
    2.6795   -1.0868    2.4749 C   0  0  0  0  0  0  0  0  0  0  0  0
    1.6624   -0.2232    1.8549 N   0  0  0  0  0  0  0  0  0  0  0  0
    0.5626   -0.8128    1.2459 C   0  0  0  0  0  0  0  0  0  0  0  0
    0.4946   -2.0833    1.2578 O   0  0  0  0  0  0  0  0  0  0  0  0
   -0.4805   -0.0176    0.6137 C   0  0  0  0  0  0  0  0  0  0  0  0
   -0.3804    1.2882    0.6189 C   0  0  0  0  0  0  0  0  0  0  0  0
   -1.5573   -0.7308    0.0228 N   0  0  0  0  0  0  0  0  0  0  0  0
   -2.6727   -0.2179   -0.6397 C   0  0  0  0  0  0  0  0  0  0  0  0
   -3.6853   -1.1783   -1.1837 C   0  0  0  0  0  0  0  0  0  0  0  0
   -2.8999    0.9927   -0.8191 O   0  0  0  0  0  0  0  0  0  0  0  0
    3.6512   -0.5603    2.5685 H   0  0  0  0  0  0  0  0  0  0  0  0
    2.8358   -1.9997    1.8352 H   0  0  0  0  0  0  0  0  0  0  0  0
    2.3773   -1.3971    3.4915 H   0  0  0  0  0  0  0  0  0  0  0  0
    1.8442    0.7876    1.9190 H   0  0  0  0  0  0  0  0  0  0  0  0
    0.4590    1.7722    1.0824 H   0  0  0  0  0  0  0  0  0  0  0  0
   -1.1567    1.9096    0.1472 H   0  0  0  0  0  0  0  0  0  0  0  0
   -1.4903   -1.7911    0.1039 H   0  0  0  0  0  0  0  0  0  0  0  0
   -3.8602   -1.9308   -0.3740 H   0  0  0  0  0  0  0  0  0  0  0  0
   -4.6479   -0.6841   -1.3934 H   0  0  0  0  0  0  0  0  0  0  0  0
   -3.3419   -1.6886   -2.0857 H   0  0  0  0  0  0  0  0  0  0  0  0
  1  2  1  0
  1 11  1  0
  1 12  1  0
  1 13  1  0
  2  3  1  0
  2 14  1  0
  3  4  2  0
  3  5  1  0
  5  6  2  3
  5  7  1  0
  6 15  1  0
  6 16  1  0
  7  8  1  0
  7 17  1  0
  8  9  1  0
  8 10  2  0
  9 18  1  0
  9 19  1  0
  9 20  1  0
M  END

> <RosettaParamsInstructions>
M  ROOT 7
M  POLY_N_BB 7
M  POLY_CA_BB 5
M  POLY_C_BB 3
M  POLY_O_BB 4
M  POLY_IGNORE 1 10 9 14 11 12 13 18 19 20
M  POLY_UPPER 2
M  POLY_LOWER 8
M  POLY_CHG 0
M  POLY_PROPERTIES PROTEIN POLYMER ALPHA_AA ALIPHATIC
M  END

$$$$
DHA_new
     RDKit          3D

 20 19  0  0  0  0  0  0  0  0999 V2000
    2.6451   -1.0664    2.6018 C   0  0  0  0  0  0  0  0  0  0  0  0
    1.6943   -0.2227    1.8788 N   0  0  0  0  0  0  0  0  0  0  0  0
    0.5514   -0.8079    1.3109 C   0  0  0  0  0  0  0  0  0  0  0  0
    0.3957   -2.0662    1.4554 O   0  0  0  0  0  0  0  0  0  0  0  0
   -0.4796   -0.0441    0.5553 C   0  0  0  0  0  0  0  0  0  0  0  0
   -0.3512    1.2430    0.3891 C   0  0  0  0  0  0  0  0  0  0  0  0
   -1.5749   -0.7604    0.0402 N   0  0  0  0  0  0  0  0  0  0  0  0
   -2.6311   -0.2200   -0.6883 C   0  0  0  0  0  0  0  0  0  0  0  0
   -3.7142   -1.1903   -1.1483 C   0  0  0  0  0  0  0  0  0  0  0  0
   -2.7636    0.9897   -0.9947 O   0  0  0  0  0  0  0  0  0  0  0  0
    3.0523   -1.8106    1.8912 H   0  0  0  0  0  0  0  0  0  0  0  0
    3.4834   -0.4749    2.9979 H   0  0  0  0  0  0  0  0  0  0  0  0
    2.1302   -1.6184    3.4058 H   0  0  0  0  0  0  0  0  0  0  0  0
    1.9035    0.7911    1.8121 H   0  0  0  0  0  0  0  0  0  0  0  0
   -1.0329    1.8720   -0.1338 H   0  0  0  0  0  0  0  0  0  0  0  0
    0.5371    1.7419    0.8223 H   0  0  0  0  0  0  0  0  0  0  0  0
   -1.6144   -1.8254    0.2173 H   0  0  0  0  0  0  0  0  0  0  0  0
   -4.6152   -0.6239   -1.4265 H   0  0  0  0  0  0  0  0  0  0  0  0
   -3.2753   -1.7575   -1.9765 H   0  0  0  0  0  0  0  0  0  0  0  0
   -3.9473   -1.8011   -0.2692 H   0  0  0  0  0  0  0  0  0  0  0  0
  1  2  1  0
  1 11  1  0
  1 12  1  0
  1 13  1  0
  2  3  1  0
  2 14  1  0
  3  4  2  0
  3  5  1  0
  5  6  2  3
  5  7  1  0
  6 15  1  0
  6 16  1  0
  7  8  1  0
  7 17  1  0
  8  9  1  0
  8 10  2  0
  9 18  1  0
  9 19  1  0
  9 20  1  0
M  END

> <RosettaParamsInstructions>
M  ROOT 7
M  POLY_N_BB 7
M  POLY_CA_BB 5
M  POLY_C_BB 3
M  POLY_O_BB 4
M  POLY_IGNORE 1 10 9 14 11 12 13 18 19 20
M  POLY_UPPER 2
M  POLY_LOWER 8
M  POLY_CHG 0
M  POLY_PROPERTIES PROTEIN POLYMER ALPHA_AA ALIPHATIC
M  END

$$$$
DHA_new
     RDKit          3D

 20 19  0  0  0  0  0  0  0  0999 V2000
    2.3962   -1.1658    2.5680 C   0  0  0  0  0  0  0  0  0  0  0  0
    1.5942   -0.2082    1.7901 N   0  0  0  0  0  0  0  0  0  0  0  0
    0.3808   -0.6258    1.1892 C   0  0  0  0  0  0  0  0  0  0  0  0
    0.0380   -1.8161    1.3505 O   0  0  0  0  0  0  0  0  0  0  0  0
   -0.4247    0.2806    0.4249 C   0  0  0  0  0  0  0  0  0  0  0  0
   -0.0036    1.5503    0.2861 C   0  0  0  0  0  0  0  0  0  0  0  0
   -1.6384   -0.0800   -0.1938 N   0  0  0  0  0  0  0  0  0  0  0  0
   -2.3106   -1.2889   -0.2248 C   0  0  0  0  0  0  0  0  0  0  0  0
   -3.6222   -1.3221   -1.0037 C   0  0  0  0  0  0  0  0  0  0  0  0
   -2.0246   -2.3809    0.2843 O   0  0  0  0  0  0  0  0  0  0  0  0
    2.7910   -0.6526    3.4473 H   0  0  0  0  0  0  0  0  0  0  0  0
    1.7012   -1.9689    2.9514 H   0  0  0  0  0  0  0  0  0  0  0  0
    3.1584   -1.6139    1.9073 H   0  0  0  0  0  0  0  0  0  0  0  0
    1.9857    0.7342    1.7345 H   0  0  0  0  0  0  0  0  0  0  0  0
   -0.5951    2.2600   -0.2888 H   0  0  0  0  0  0  0  0  0  0  0  0
    0.8962    1.8940    0.7211 H   0  0  0  0  0  0  0  0  0  0  0  0
   -2.1126    0.7252   -0.7277 H   0  0  0  0  0  0  0  0  0  0  0  0
   -3.4041   -1.5902   -2.0409 H   0  0  0  0  0  0  0  0  0  0  0  0
   -4.3201   -2.0517   -0.5588 H   0  0  0  0  0  0  0  0  0  0  0  0
   -4.0920   -0.3312   -0.8754 H   0  0  0  0  0  0  0  0  0  0  0  0
  1  2  1  0
  1 11  1  0
  1 12  1  0
  1 13  1  0
  2  3  1  0
  2 14  1  0
  3  4  2  0
  3  5  1  0
  5  6  2  3
  5  7  1  0
  6 15  1  0
  6 16  1  0
  7  8  1  0
  7 17  1  0
  8  9  1  0
  8 10  2  0
  9 18  1  0
  9 19  1  0
  9 20  1  0
M  END

> <RosettaParamsInstructions>
M  ROOT 7
M  POLY_N_BB 7
M  POLY_CA_BB 5
M  POLY_C_BB 3
M  POLY_O_BB 4
M  POLY_IGNORE 1 10 9 14 11 12 13 18 19 20
M  POLY_UPPER 2
M  POLY_LOWER 8
M  POLY_CHG 0
M  POLY_PROPERTIES PROTEIN POLYMER ALPHA_AA ALIPHATIC
M  END

$$$$
DHA_new
     RDKit          3D

 20 19  0  0  0  0  0  0  0  0999 V2000
    2.6582   -1.0810    2.5998 C   0  0  0  0  0  0  0  0  0  0  0  0
    1.6665   -0.2842    1.8750 N   0  0  0  0  0  0  0  0  0  0  0  0
    0.5236   -0.8428    1.2962 C   0  0  0  0  0  0  0  0  0  0  0  0
    0.3612   -2.0828    1.4156 O   0  0  0  0  0  0  0  0  0  0  0  0
   -0.4612   -0.0720    0.5799 C   0  0  0  0  0  0  0  0  0  0  0  0
   -0.3229    1.2135    0.4383 C   0  0  0  0  0  0  0  0  0  0  0  0
   -1.5783   -0.7478    0.0368 N   0  0  0  0  0  0  0  0  0  0  0  0
   -2.6440   -0.2276   -0.6838 C   0  0  0  0  0  0  0  0  0  0  0  0
   -3.7246   -1.1707   -1.1589 C   0  0  0  0  0  0  0  0  0  0  0  0
   -2.7630    0.9900   -0.9657 O   0  0  0  0  0  0  0  0  0  0  0  0
    2.4252   -2.1441    2.5856 H   0  0  0  0  0  0  0  0  0  0  0  0
    3.6189   -0.9184    2.0568 H   0  0  0  0  0  0  0  0  0  0  0  0
    2.7708   -0.6352    3.6025 H   0  0  0  0  0  0  0  0  0  0  0  0
    1.8704    0.7151    1.8219 H   0  0  0  0  0  0  0  0  0  0  0  0
   -1.0177    1.8647   -0.0857 H   0  0  0  0  0  0  0  0  0  0  0  0
    0.5613    1.7260    0.8722 H   0  0  0  0  0  0  0  0  0  0  0  0
   -1.6307   -1.8259    0.1931 H   0  0  0  0  0  0  0  0  0  0  0  0
   -3.4351   -1.5943   -2.1382 H   0  0  0  0  0  0  0  0  0  0  0  0
   -4.6602   -0.5940   -1.2302 H   0  0  0  0  0  0  0  0  0  0  0  0
   -3.8248   -1.9407   -0.3703 H   0  0  0  0  0  0  0  0  0  0  0  0
  1  2  1  0
  1 11  1  0
  1 12  1  0
  1 13  1  0
  2  3  1  0
  2 14  1  0
  3  4  2  0
  3  5  1  0
  5  6  2  3
  5  7  1  0
  6 15  1  0
  6 16  1  0
  7  8  1  0
  7 17  1  0
  8  9  1  0
  8 10  2  0
  9 18  1  0
  9 19  1  0
  9 20  1  0
M  END

> <RosettaParamsInstructions>
M  ROOT 7
M  POLY_N_BB 7
M  POLY_CA_BB 5
M  POLY_C_BB 3
M  POLY_O_BB 4
M  POLY_IGNORE 1 10 9 14 11 12 13 18 19 20
M  POLY_UPPER 2
M  POLY_LOWER 8
M  POLY_CHG 0
M  POLY_PROPERTIES PROTEIN POLYMER ALPHA_AA ALIPHATIC
M  END

$$$$
DHA_new
     RDKit          3D

 20 19  0  0  0  0  0  0  0  0999 V2000
    2.6706   -1.0766    2.5881 C   0  0  0  0  0  0  0  0  0  0  0  0
    1.7061   -0.2393    1.8821 N   0  0  0  0  0  0  0  0  0  0  0  0
    0.5582   -0.7908    1.3001 C   0  0  0  0  0  0  0  0  0  0  0  0
    0.4077   -2.0426    1.4205 O   0  0  0  0  0  0  0  0  0  0  0  0
   -0.4764   -0.0359    0.5665 C   0  0  0  0  0  0  0  0  0  0  0  0
   -0.3166    1.2601    0.4441 C   0  0  0  0  0  0  0  0  0  0  0  0
   -1.5707   -0.7539    0.0437 N   0  0  0  0  0  0  0  0  0  0  0  0
   -2.6567   -0.2426   -0.6794 C   0  0  0  0  0  0  0  0  0  0  0  0
   -3.7292   -1.1863   -1.1516 C   0  0  0  0  0  0  0  0  0  0  0  0
   -2.8170    0.9479   -0.9721 O   0  0  0  0  0  0  0  0  0  0  0  0
    3.6408   -0.5746    2.7127 H   0  0  0  0  0  0  0  0  0  0  0  0
    2.2313   -1.3397    3.5677 H   0  0  0  0  0  0  0  0  0  0  0  0
    2.8421   -1.9628    1.9468 H   0  0  0  0  0  0  0  0  0  0  0  0
    1.9181    0.7577    1.8402 H   0  0  0  0  0  0  0  0  0  0  0  0
   -1.0454    1.8509   -0.0824 H   0  0  0  0  0  0  0  0  0  0  0  0
    0.5570    1.7530    0.8749 H   0  0  0  0  0  0  0  0  0  0  0  0
   -1.5559   -1.8015    0.2271 H   0  0  0  0  0  0  0  0  0  0  0  0
   -3.2904   -2.1801   -1.1893 H   0  0  0  0  0  0  0  0  0  0  0  0
   -4.5952   -1.1727   -0.4596 H   0  0  0  0  0  0  0  0  0  0  0  0
   -4.0848   -0.8221   -2.1394 H   0  0  0  0  0  0  0  0  0  0  0  0
  1  2  1  0
  1 11  1  0
  1 12  1  0
  1 13  1  0
  2  3  1  0
  2 14  1  0
  3  4  2  0
  3  5  1  0
  5  6  2  3
  5  7  1  0
  6 15  1  0
  6 16  1  0
  7  8  1  0
  7 17  1  0
  8  9  1  0
  8 10  2  0
  9 18  1  0
  9 19  1  0
  9 20  1  0
M  END

> <RosettaParamsInstructions>
M  ROOT 7
M  POLY_N_BB 7
M  POLY_CA_BB 5
M  POLY_C_BB 3
M  POLY_O_BB 4
M  POLY_IGNORE 1 10 9 14 11 12 13 18 19 20
M  POLY_UPPER 2
M  POLY_LOWER 8
M  POLY_CHG 0
M  POLY_PROPERTIES PROTEIN POLYMER ALPHA_AA ALIPHATIC
M  END

$$$$
DHA_new
     RDKit          3D

 20 19  0  0  0  0  0  0  0  0999 V2000
    2.6271   -1.0340    2.6578 C   0  0  0  0  0  0  0  0  0  0  0  0
    1.6808   -0.2257    1.8657 N   0  0  0  0  0  0  0  0  0  0  0  0
    0.5539   -0.8276    1.3582 C   0  0  0  0  0  0  0  0  0  0  0  0
    0.3307   -2.0636    1.5688 O   0  0  0  0  0  0  0  0  0  0  0  0
   -0.4457   -0.0912    0.5541 C   0  0  0  0  0  0  0  0  0  0  0  0
   -0.2458    1.1731    0.3217 C   0  0  0  0  0  0  0  0  0  0  0  0
   -1.5810   -0.7711    0.0634 N   0  0  0  0  0  0  0  0  0  0  0  0
   -2.6152   -0.2451   -0.7028 C   0  0  0  0  0  0  0  0  0  0  0  0
   -3.7555   -1.1457   -1.1350 C   0  0  0  0  0  0  0  0  0  0  0  0
   -2.6840    0.9283   -1.0709 O   0  0  0  0  0  0  0  0  0  0  0  0
    3.6690   -0.7429    2.4271 H   0  0  0  0  0  0  0  0  0  0  0  0
    2.3949   -0.8264    3.7242 H   0  0  0  0  0  0  0  0  0  0  0  0
    2.5323   -2.1048    2.4097 H   0  0  0  0  0  0  0  0  0  0  0  0
    1.9254    0.7582    1.7381 H   0  0  0  0  0  0  0  0  0  0  0  0
   -0.9364    1.7716   -0.2589 H   0  0  0  0  0  0  0  0  0  0  0  0
    0.6487    1.6528    0.7239 H   0  0  0  0  0  0  0  0  0  0  0  0
   -1.6194   -1.8106    0.3300 H   0  0  0  0  0  0  0  0  0  0  0  0
   -4.0157   -0.9371   -2.2058 H   0  0  0  0  0  0  0  0  0  0  0  0
   -3.4087   -2.1771   -1.0807 H   0  0  0  0  0  0  0  0  0  0  0  0
   -4.6618   -0.9333   -0.5477 H   0  0  0  0  0  0  0  0  0  0  0  0
  1  2  1  0
  1 11  1  0
  1 12  1  0
  1 13  1  0
  2  3  1  0
  2 14  1  0
  3  4  2  0
  3  5  1  0
  5  6  2  3
  5  7  1  0
  6 15  1  0
  6 16  1  0
  7  8  1  0
  7 17  1  0
  8  9  1  0
  8 10  2  0
  9 18  1  0
  9 19  1  0
  9 20  1  0
M  END

> <RosettaParamsInstructions>
M  ROOT 7
M  POLY_N_BB 7
M  POLY_CA_BB 5
M  POLY_C_BB 3
M  POLY_O_BB 4
M  POLY_IGNORE 1 10 9 14 11 12 13 18 19 20
M  POLY_UPPER 2
M  POLY_LOWER 8
M  POLY_CHG 0
M  POLY_PROPERTIES PROTEIN POLYMER ALPHA_AA ALIPHATIC
M  END

$$$$
DHA_new
     RDKit          3D

 20 19  0  0  0  0  0  0  0  0999 V2000
    2.6160   -1.0456    2.6750 C   0  0  0  0  0  0  0  0  0  0  0  0
    1.7084   -0.2133    1.8802 N   0  0  0  0  0  0  0  0  0  0  0  0
    0.5412   -0.7814    1.3521 C   0  0  0  0  0  0  0  0  0  0  0  0
    0.2901   -2.0051    1.5707 O   0  0  0  0  0  0  0  0  0  0  0  0
   -0.4411   -0.0369    0.5389 C   0  0  0  0  0  0  0  0  0  0  0  0
   -0.2232    1.2375    0.2851 C   0  0  0  0  0  0  0  0  0  0  0  0
   -1.5841   -0.7497    0.0690 N   0  0  0  0  0  0  0  0  0  0  0  0
   -2.6402   -0.2665   -0.7096 C   0  0  0  0  0  0  0  0  0  0  0  0
   -3.7769   -1.1710   -1.1180 C   0  0  0  0  0  0  0  0  0  0  0  0
   -2.7133    0.9168   -1.1103 O   0  0  0  0  0  0  0  0  0  0  0  0
    3.6485   -0.7083    2.5312 H   0  0  0  0  0  0  0  0  0  0  0  0
    2.4972   -2.0952    2.3030 H   0  0  0  0  0  0  0  0  0  0  0  0
    2.3456   -1.0545    3.7414 H   0  0  0  0  0  0  0  0  0  0  0  0
    2.0033    0.7755    1.7586 H   0  0  0  0  0  0  0  0  0  0  0  0
    0.6866    1.6883    0.6943 H   0  0  0  0  0  0  0  0  0  0  0  0
   -0.9018    1.8420   -0.3039 H   0  0  0  0  0  0  0  0  0  0  0  0
   -1.6531   -1.7816    0.3389 H   0  0  0  0  0  0  0  0  0  0  0  0
   -3.7658   -1.1658   -2.2351 H   0  0  0  0  0  0  0  0  0  0  0  0
   -3.5149   -2.2074   -0.8179 H   0  0  0  0  0  0  0  0  0  0  0  0
   -4.7290   -0.8301   -0.7027 H   0  0  0  0  0  0  0  0  0  0  0  0
  1  2  1  0
  1 11  1  0
  1 12  1  0
  1 13  1  0
  2  3  1  0
  2 14  1  0
  3  4  2  0
  3  5  1  0
  5  6  2  3
  5  7  1  0
  6 15  1  0
  6 16  1  0
  7  8  1  0
  7 17  1  0
  8  9  1  0
  8 10  2  0
  9 18  1  0
  9 19  1  0
  9 20  1  0
M  END

> <RosettaParamsInstructions>
M  ROOT 7
M  POLY_N_BB 7
M  POLY_CA_BB 5
M  POLY_C_BB 3
M  POLY_O_BB 4
M  POLY_IGNORE 1 10 9 14 11 12 13 18 19 20
M  POLY_UPPER 2
M  POLY_LOWER 8
M  POLY_CHG 0
M  POLY_PROPERTIES PROTEIN POLYMER ALPHA_AA ALIPHATIC
M  END

$$$$
DHA_new
     RDKit          3D

 20 19  0  0  0  0  0  0  0  0999 V2000
    2.6535   -1.0392    2.6753 C   0  0  0  0  0  0  0  0  0  0  0  0
    1.6955   -0.2538    1.8807 N   0  0  0  0  0  0  0  0  0  0  0  0
    0.5463   -0.8066    1.3434 C   0  0  0  0  0  0  0  0  0  0  0  0
    0.3374   -2.0477    1.5632 O   0  0  0  0  0  0  0  0  0  0  0  0
   -0.4553   -0.0711    0.5366 C   0  0  0  0  0  0  0  0  0  0  0  0
   -0.2323    1.1977    0.3177 C   0  0  0  0  0  0  0  0  0  0  0  0
   -1.5879   -0.7552    0.0458 N   0  0  0  0  0  0  0  0  0  0  0  0
   -2.6298   -0.2568   -0.7194 C   0  0  0  0  0  0  0  0  0  0  0  0
   -3.7731   -1.1512   -1.1581 C   0  0  0  0  0  0  0  0  0  0  0  0
   -2.7155    0.9146   -1.0968 O   0  0  0  0  0  0  0  0  0  0  0  0
    3.3881   -1.4448    1.9501 H   0  0  0  0  0  0  0  0  0  0  0  0
    3.0954   -0.3953    3.4363 H   0  0  0  0  0  0  0  0  0  0  0  0
    2.1029   -1.8591    3.2162 H   0  0  0  0  0  0  0  0  0  0  0  0
    1.9347    0.7461    1.7464 H   0  0  0  0  0  0  0  0  0  0  0  0
    0.6535    1.6781    0.7166 H   0  0  0  0  0  0  0  0  0  0  0  0
   -0.9430    1.7666   -0.2680 H   0  0  0  0  0  0  0  0  0  0  0  0
   -1.6220   -1.7923    0.3138 H   0  0  0  0  0  0  0  0  0  0  0  0
   -3.6082   -1.4348   -2.2057 H   0  0  0  0  0  0  0  0  0  0  0  0
   -3.7320   -2.0615   -0.5291 H   0  0  0  0  0  0  0  0  0  0  0  0
   -4.7149   -0.5860   -1.0242 H   0  0  0  0  0  0  0  0  0  0  0  0
  1  2  1  0
  1 11  1  0
  1 12  1  0
  1 13  1  0
  2  3  1  0
  2 14  1  0
  3  4  2  0
  3  5  1  0
  5  6  2  3
  5  7  1  0
  6 15  1  0
  6 16  1  0
  7  8  1  0
  7 17  1  0
  8  9  1  0
  8 10  2  0
  9 18  1  0
  9 19  1  0
  9 20  1  0
M  END

> <RosettaParamsInstructions>
M  ROOT 7
M  POLY_N_BB 7
M  POLY_CA_BB 5
M  POLY_C_BB 3
M  POLY_O_BB 4
M  POLY_IGNORE 1 10 9 14 11 12 13 18 19 20
M  POLY_UPPER 2
M  POLY_LOWER 8
M  POLY_CHG 0
M  POLY_PROPERTIES PROTEIN POLYMER ALPHA_AA ALIPHATIC
M  END

$$$$
DHA_new
     RDKit          3D

 20 19  0  0  0  0  0  0  0  0999 V2000
    2.6475   -1.0604    2.6623 C   0  0  0  0  0  0  0  0  0  0  0  0
    1.7116   -0.2698    1.8585 N   0  0  0  0  0  0  0  0  0  0  0  0
    0.5374   -0.8212    1.3340 C   0  0  0  0  0  0  0  0  0  0  0  0
    0.3088   -2.0483    1.5831 O   0  0  0  0  0  0  0  0  0  0  0  0
   -0.4611   -0.1039    0.5160 C   0  0  0  0  0  0  0  0  0  0  0  0
   -0.2605    1.1578    0.2394 C   0  0  0  0  0  0  0  0  0  0  0  0
   -1.5951   -0.7719    0.0520 N   0  0  0  0  0  0  0  0  0  0  0  0
   -2.6075   -0.2308   -0.7190 C   0  0  0  0  0  0  0  0  0  0  0  0
   -3.7680   -1.1342   -1.1249 C   0  0  0  0  0  0  0  0  0  0  0  0
   -2.7148    0.9366   -1.1489 O   0  0  0  0  0  0  0  0  0  0  0  0
    2.2424   -2.0670    2.8910 H   0  0  0  0  0  0  0  0  0  0  0  0
    2.7347   -0.5153    3.6294 H   0  0  0  0  0  0  0  0  0  0  0  0
    3.6469   -1.0731    2.2056 H   0  0  0  0  0  0  0  0  0  0  0  0
    2.0033    0.7149    1.7229 H   0  0  0  0  0  0  0  0  0  0  0  0
    0.6597    1.6189    0.6414 H   0  0  0  0  0  0  0  0  0  0  0  0
   -0.9112    1.7905   -0.3455 H   0  0  0  0  0  0  0  0  0  0  0  0
   -1.6789   -1.8007    0.3249 H   0  0  0  0  0  0  0  0  0  0  0  0
   -3.5903   -1.3854   -2.1754 H   0  0  0  0  0  0  0  0  0  0  0  0
   -3.7913   -2.0158   -0.4524 H   0  0  0  0  0  0  0  0  0  0  0  0
   -4.7202   -0.5731   -0.9534 H   0  0  0  0  0  0  0  0  0  0  0  0
  1  2  1  0
  1 11  1  0
  1 12  1  0
  1 13  1  0
  2  3  1  0
  2 14  1  0
  3  4  2  0
  3  5  1  0
  5  6  2  3
  5  7  1  0
  6 15  1  0
  6 16  1  0
  7  8  1  0
  7 17  1  0
  8  9  1  0
  8 10  2  0
  9 18  1  0
  9 19  1  0
  9 20  1  0
M  END

> <RosettaParamsInstructions>
M  ROOT 7
M  POLY_N_BB 7
M  POLY_CA_BB 5
M  POLY_C_BB 3
M  POLY_O_BB 4
M  POLY_IGNORE 1 10 9 14 11 12 13 18 19 20
M  POLY_UPPER 2
M  POLY_LOWER 8
M  POLY_CHG 0
M  POLY_PROPERTIES PROTEIN POLYMER ALPHA_AA ALIPHATIC
M  END

$$$$
DHA_new
     RDKit          3D

 20 19  0  0  0  0  0  0  0  0999 V2000
    2.6727   -1.0597    2.5691 C   0  0  0  0  0  0  0  0  0  0  0  0
    1.6867   -0.2224    1.8556 N   0  0  0  0  0  0  0  0  0  0  0  0
    0.5621   -0.8401    1.3041 C   0  0  0  0  0  0  0  0  0  0  0  0
    0.4171   -2.1042    1.4305 O   0  0  0  0  0  0  0  0  0  0  0  0
   -0.4630   -0.0620    0.5778 C   0  0  0  0  0  0  0  0  0  0  0  0
   -0.2995    1.2330    0.4570 C   0  0  0  0  0  0  0  0  0  0  0  0
   -1.5556   -0.7859    0.0627 N   0  0  0  0  0  0  0  0  0  0  0  0
   -2.6298   -0.2672   -0.6489 C   0  0  0  0  0  0  0  0  0  0  0  0
   -3.7494   -1.1701   -1.1500 C   0  0  0  0  0  0  0  0  0  0  0  0
   -2.7879    0.9413   -0.9425 O   0  0  0  0  0  0  0  0  0  0  0  0
    2.7202   -2.0204    2.0121 H   0  0  0  0  0  0  0  0  0  0  0  0
    3.6505   -0.5422    2.6073 H   0  0  0  0  0  0  0  0  0  0  0  0
    2.2559   -1.1970    3.5921 H   0  0  0  0  0  0  0  0  0  0  0  0
    1.8906    0.7869    1.8060 H   0  0  0  0  0  0  0  0  0  0  0  0
    0.5546    1.7504    0.8678 H   0  0  0  0  0  0  0  0  0  0  0  0
   -1.0135    1.8453   -0.0606 H   0  0  0  0  0  0  0  0  0  0  0  0
   -1.5831   -1.8476    0.2237 H   0  0  0  0  0  0  0  0  0  0  0  0
   -3.3622   -2.1978   -1.1144 H   0  0  0  0  0  0  0  0  0  0  0  0
   -3.9404   -0.8756   -2.1949 H   0  0  0  0  0  0  0  0  0  0  0  0
   -4.6327   -1.0171   -0.5135 H   0  0  0  0  0  0  0  0  0  0  0  0
  1  2  1  0
  1 11  1  0
  1 12  1  0
  1 13  1  0
  2  3  1  0
  2 14  1  0
  3  4  2  0
  3  5  1  0
  5  6  2  3
  5  7  1  0
  6 15  1  0
  6 16  1  0
  7  8  1  0
  7 17  1  0
  8  9  1  0
  8 10  2  0
  9 18  1  0
  9 19  1  0
  9 20  1  0
M  END

> <RosettaParamsInstructions>
M  ROOT 7
M  POLY_N_BB 7
M  POLY_CA_BB 5
M  POLY_C_BB 3
M  POLY_O_BB 4
M  POLY_IGNORE 1 10 9 14 11 12 13 18 19 20
M  POLY_UPPER 2
M  POLY_LOWER 8
M  POLY_CHG 0
M  POLY_PROPERTIES PROTEIN POLYMER ALPHA_AA ALIPHATIC
M  END

$$$$
DHA_new
     RDKit          3D

 20 19  0  0  0  0  0  0  0  0999 V2000
    2.6817   -1.0845    2.6019 C   0  0  0  0  0  0  0  0  0  0  0  0
    1.6838   -0.2800    1.8722 N   0  0  0  0  0  0  0  0  0  0  0  0
    0.5464   -0.8552    1.3068 C   0  0  0  0  0  0  0  0  0  0  0  0
    0.3894   -2.1171    1.4398 O   0  0  0  0  0  0  0  0  0  0  0  0
   -0.4659   -0.0797    0.5738 C   0  0  0  0  0  0  0  0  0  0  0  0
   -0.3107    1.2078    0.4351 C   0  0  0  0  0  0  0  0  0  0  0  0
   -1.5863   -0.7870    0.0419 N   0  0  0  0  0  0  0  0  0  0  0  0
   -2.6514   -0.2385   -0.6816 C   0  0  0  0  0  0  0  0  0  0  0  0
   -3.7573   -1.1631   -1.1661 C   0  0  0  0  0  0  0  0  0  0  0  0
   -2.7858    0.9503   -0.9728 O   0  0  0  0  0  0  0  0  0  0  0  0
    2.3022   -2.0712    2.8547 H   0  0  0  0  0  0  0  0  0  0  0  0
    3.5919   -1.0943    1.9588 H   0  0  0  0  0  0  0  0  0  0  0  0
    2.9508   -0.4996    3.5109 H   0  0  0  0  0  0  0  0  0  0  0  0
    1.8735    0.7297    1.8035 H   0  0  0  0  0  0  0  0  0  0  0  0
   -0.9973    1.8449   -0.0819 H   0  0  0  0  0  0  0  0  0  0  0  0
    0.5525    1.7300    0.8489 H   0  0  0  0  0  0  0  0  0  0  0  0
   -1.5782   -1.8390    0.2345 H   0  0  0  0  0  0  0  0  0  0  0  0
   -4.6566   -0.8462   -0.6099 H   0  0  0  0  0  0  0  0  0  0  0  0
   -3.4816   -2.2069   -0.9950 H   0  0  0  0  0  0  0  0  0  0  0  0
   -3.9076   -0.9527   -2.2346 H   0  0  0  0  0  0  0  0  0  0  0  0
  1  2  1  0
  1 11  1  0
  1 12  1  0
  1 13  1  0
  2  3  1  0
  2 14  1  0
  3  4  2  0
  3  5  1  0
  5  6  2  3
  5  7  1  0
  6 15  1  0
  6 16  1  0
  7  8  1  0
  7 17  1  0
  8  9  1  0
  8 10  2  0
  9 18  1  0
  9 19  1  0
  9 20  1  0
M  END

> <RosettaParamsInstructions>
M  ROOT 7
M  POLY_N_BB 7
M  POLY_CA_BB 5
M  POLY_C_BB 3
M  POLY_O_BB 4
M  POLY_IGNORE 1 10 9 14 11 12 13 18 19 20
M  POLY_UPPER 2
M  POLY_LOWER 8
M  POLY_CHG 0
M  POLY_PROPERTIES PROTEIN POLYMER ALPHA_AA ALIPHATIC
M  END

$$$$
DHA_new
     RDKit          3D

 20 19  0  0  0  0  0  0  0  0999 V2000
    2.7299   -1.0745    2.4820 C   0  0  0  0  0  0  0  0  0  0  0  0
    1.6863   -0.2379    1.8445 N   0  0  0  0  0  0  0  0  0  0  0  0
    0.5859   -0.8367    1.2593 C   0  0  0  0  0  0  0  0  0  0  0  0
    0.4817   -2.0902    1.2741 O   0  0  0  0  0  0  0  0  0  0  0  0
   -0.4935   -0.0887    0.6068 C   0  0  0  0  0  0  0  0  0  0  0  0
   -0.3989    1.2244    0.5831 C   0  0  0  0  0  0  0  0  0  0  0  0
   -1.5856   -0.8096    0.0335 N   0  0  0  0  0  0  0  0  0  0  0  0
   -2.6591   -0.2360   -0.6055 C   0  0  0  0  0  0  0  0  0  0  0  0
   -3.7478   -1.1271   -1.1669 C   0  0  0  0  0  0  0  0  0  0  0  0
   -2.8390    0.9727   -0.7778 O   0  0  0  0  0  0  0  0  0  0  0  0
    3.2045   -1.6938    1.7122 H   0  0  0  0  0  0  0  0  0  0  0  0
    3.5041   -0.4380    2.9575 H   0  0  0  0  0  0  0  0  0  0  0  0
    2.2608   -1.6542    3.3038 H   0  0  0  0  0  0  0  0  0  0  0  0
    1.8259    0.7818    1.8633 H   0  0  0  0  0  0  0  0  0  0  0  0
    0.4348    1.7121    1.0244 H   0  0  0  0  0  0  0  0  0  0  0  0
   -1.1245    1.8978    0.1344 H   0  0  0  0  0  0  0  0  0  0  0  0
   -1.5304   -1.8616    0.1264 H   0  0  0  0  0  0  0  0  0  0  0  0
   -4.4377   -1.3342   -0.3512 H   0  0  0  0  0  0  0  0  0  0  0  0
   -4.1986   -0.6665   -2.0602 H   0  0  0  0  0  0  0  0  0  0  0  0
   -3.3054   -2.0921   -1.5028 H   0  0  0  0  0  0  0  0  0  0  0  0
  1  2  1  0
  1 11  1  0
  1 12  1  0
  1 13  1  0
  2  3  1  0
  2 14  1  0
  3  4  2  0
  3  5  1  0
  5  6  2  3
  5  7  1  0
  6 15  1  0
  6 16  1  0
  7  8  1  0
  7 17  1  0
  8  9  1  0
  8 10  2  0
  9 18  1  0
  9 19  1  0
  9 20  1  0
M  END

> <RosettaParamsInstructions>
M  ROOT 7
M  POLY_N_BB 7
M  POLY_CA_BB 5
M  POLY_C_BB 3
M  POLY_O_BB 4
M  POLY_IGNORE 1 10 9 14 11 12 13 18 19 20
M  POLY_UPPER 2
M  POLY_LOWER 8
M  POLY_CHG 0
M  POLY_PROPERTIES PROTEIN POLYMER ALPHA_AA ALIPHATIC
M  END

$$$$
DHA_new
     RDKit          3D

 20 19  0  0  0  0  0  0  0  0999 V2000
    2.6862   -1.0488    2.5718 C   0  0  0  0  0  0  0  0  0  0  0  0
    1.6848   -0.2352    1.8579 N   0  0  0  0  0  0  0  0  0  0  0  0
    0.5608   -0.8399    1.2965 C   0  0  0  0  0  0  0  0  0  0  0  0
    0.4194   -2.0841    1.4104 O   0  0  0  0  0  0  0  0  0  0  0  0
   -0.4510   -0.0782    0.5847 C   0  0  0  0  0  0  0  0  0  0  0  0
   -0.2789    1.2193    0.4803 C   0  0  0  0  0  0  0  0  0  0  0  0
   -1.5590   -0.7754    0.0472 N   0  0  0  0  0  0  0  0  0  0  0  0
   -2.6487   -0.2838   -0.6675 C   0  0  0  0  0  0  0  0  0  0  0  0
   -3.7523   -1.1696   -1.1726 C   0  0  0  0  0  0  0  0  0  0  0  0
   -2.8093    0.9260   -0.9525 O   0  0  0  0  0  0  0  0  0  0  0  0
    3.6855   -0.7208    2.2551 H   0  0  0  0  0  0  0  0  0  0  0  0
    2.5718   -0.8779    3.6675 H   0  0  0  0  0  0  0  0  0  0  0  0
    2.4985   -2.1250    2.3658 H   0  0  0  0  0  0  0  0  0  0  0  0
    1.9305    0.7805    1.8409 H   0  0  0  0  0  0  0  0  0  0  0  0
   -1.0037    1.8138   -0.0374 H   0  0  0  0  0  0  0  0  0  0  0  0
    0.5585    1.7396    0.8875 H   0  0  0  0  0  0  0  0  0  0  0  0
   -1.5562   -1.8382    0.2167 H   0  0  0  0  0  0  0  0  0  0  0  0
   -3.8120   -0.9957   -2.2655 H   0  0  0  0  0  0  0  0  0  0  0  0
   -4.7229   -0.8422   -0.7450 H   0  0  0  0  0  0  0  0  0  0  0  0
   -3.6084   -2.2168   -0.9009 H   0  0  0  0  0  0  0  0  0  0  0  0
  1  2  1  0
  1 11  1  0
  1 12  1  0
  1 13  1  0
  2  3  1  0
  2 14  1  0
  3  4  2  0
  3  5  1  0
  5  6  2  3
  5  7  1  0
  6 15  1  0
  6 16  1  0
  7  8  1  0
  7 17  1  0
  8  9  1  0
  8 10  2  0
  9 18  1  0
  9 19  1  0
  9 20  1  0
M  END

> <RosettaParamsInstructions>
M  ROOT 7
M  POLY_N_BB 7
M  POLY_CA_BB 5
M  POLY_C_BB 3
M  POLY_O_BB 4
M  POLY_IGNORE 1 10 9 14 11 12 13 18 19 20
M  POLY_UPPER 2
M  POLY_LOWER 8
M  POLY_CHG 0
M  POLY_PROPERTIES PROTEIN POLYMER ALPHA_AA ALIPHATIC
M  END

$$$$
DHA_new
     RDKit          3D

 20 19  0  0  0  0  0  0  0  0999 V2000
    2.7022   -1.0362    2.5767 C   0  0  0  0  0  0  0  0  0  0  0  0
    1.6965   -0.2485    1.8510 N   0  0  0  0  0  0  0  0  0  0  0  0
    0.5607   -0.8498    1.3029 C   0  0  0  0  0  0  0  0  0  0  0  0
    0.4232   -2.0942    1.4499 O   0  0  0  0  0  0  0  0  0  0  0  0
   -0.4558   -0.1072    0.5792 C   0  0  0  0  0  0  0  0  0  0  0  0
   -0.2986    1.1927    0.4335 C   0  0  0  0  0  0  0  0  0  0  0  0
   -1.5786   -0.7826    0.0520 N   0  0  0  0  0  0  0  0  0  0  0  0
   -2.6538   -0.2683   -0.6641 C   0  0  0  0  0  0  0  0  0  0  0  0
   -3.7813   -1.1476   -1.1568 C   0  0  0  0  0  0  0  0  0  0  0  0
   -2.7736    0.9289   -0.9515 O   0  0  0  0  0  0  0  0  0  0  0  0
    2.2126   -1.9912    2.9052 H   0  0  0  0  0  0  0  0  0  0  0  0
    2.9724   -0.4584    3.4818 H   0  0  0  0  0  0  0  0  0  0  0  0
    3.5595   -1.2721    1.9291 H   0  0  0  0  0  0  0  0  0  0  0  0
    1.8996    0.7566    1.7855 H   0  0  0  0  0  0  0  0  0  0  0  0
    0.5674    1.7327    0.8366 H   0  0  0  0  0  0  0  0  0  0  0  0
   -0.9891    1.8402   -0.0843 H   0  0  0  0  0  0  0  0  0  0  0  0
   -1.5702   -1.8481    0.2509 H   0  0  0  0  0  0  0  0  0  0  0  0
   -4.1049   -0.7934   -2.1512 H   0  0  0  0  0  0  0  0  0  0  0  0
   -4.6237   -1.0491   -0.4507 H   0  0  0  0  0  0  0  0  0  0  0  0
   -3.3709   -2.1568   -1.2349 H   0  0  0  0  0  0  0  0  0  0  0  0
  1  2  1  0
  1 11  1  0
  1 12  1  0
  1 13  1  0
  2  3  1  0
  2 14  1  0
  3  4  2  0
  3  5  1  0
  5  6  2  3
  5  7  1  0
  6 15  1  0
  6 16  1  0
  7  8  1  0
  7 17  1  0
  8  9  1  0
  8 10  2  0
  9 18  1  0
  9 19  1  0
  9 20  1  0
M  END

> <RosettaParamsInstructions>
M  ROOT 7
M  POLY_N_BB 7
M  POLY_CA_BB 5
M  POLY_C_BB 3
M  POLY_O_BB 4
M  POLY_IGNORE 1 10 9 14 11 12 13 18 19 20
M  POLY_UPPER 2
M  POLY_LOWER 8
M  POLY_CHG 0
M  POLY_PROPERTIES PROTEIN POLYMER ALPHA_AA ALIPHATIC
M  END

$$$$
DHA_new
     RDKit          3D

 20 19  0  0  0  0  0  0  0  0999 V2000
    2.6269   -1.0607    2.6668 C   0  0  0  0  0  0  0  0  0  0  0  0
    1.6951   -0.2637    1.8991 N   0  0  0  0  0  0  0  0  0  0  0  0
    0.5309   -0.7935    1.3328 C   0  0  0  0  0  0  0  0  0  0  0  0
    0.3239   -2.0427    1.5295 O   0  0  0  0  0  0  0  0  0  0  0  0
   -0.4625   -0.0591    0.5441 C   0  0  0  0  0  0  0  0  0  0  0  0
   -0.2766    1.2219    0.3264 C   0  0  0  0  0  0  0  0  0  0  0  0
   -1.5969   -0.7346    0.0333 N   0  0  0  0  0  0  0  0  0  0  0  0
   -2.6446   -0.2187   -0.7319 C   0  0  0  0  0  0  0  0  0  0  0  0
   -3.7477   -1.1491   -1.1582 C   0  0  0  0  0  0  0  0  0  0  0  0
   -2.7638    0.9553   -1.1062 O   0  0  0  0  0  0  0  0  0  0  0  0
    2.5645   -0.8088    3.7460 H   0  0  0  0  0  0  0  0  0  0  0  0
    2.4372   -2.1449    2.5140 H   0  0  0  0  0  0  0  0  0  0  0  0
    3.6438   -0.8577    2.2925 H   0  0  0  0  0  0  0  0  0  0  0  0
    1.9217    0.7350    1.7788 H   0  0  0  0  0  0  0  0  0  0  0  0
    0.6114    1.7441    0.7280 H   0  0  0  0  0  0  0  0  0  0  0  0
   -0.9476    1.8340   -0.2361 H   0  0  0  0  0  0  0  0  0  0  0  0
   -1.6369   -1.7888    0.2806 H   0  0  0  0  0  0  0  0  0  0  0  0
   -3.3291   -1.7470   -1.9861 H   0  0  0  0  0  0  0  0  0  0  0  0
   -3.8921   -1.8567   -0.2907 H   0  0  0  0  0  0  0  0  0  0  0  0
   -4.6640   -0.6165   -1.4219 H   0  0  0  0  0  0  0  0  0  0  0  0
  1  2  1  0
  1 11  1  0
  1 12  1  0
  1 13  1  0
  2  3  1  0
  2 14  1  0
  3  4  2  0
  3  5  1  0
  5  6  2  3
  5  7  1  0
  6 15  1  0
  6 16  1  0
  7  8  1  0
  7 17  1  0
  8  9  1  0
  8 10  2  0
  9 18  1  0
  9 19  1  0
  9 20  1  0
M  END

> <RosettaParamsInstructions>
M  ROOT 7
M  POLY_N_BB 7
M  POLY_CA_BB 5
M  POLY_C_BB 3
M  POLY_O_BB 4
M  POLY_IGNORE 1 10 9 14 11 12 13 18 19 20
M  POLY_UPPER 2
M  POLY_LOWER 8
M  POLY_CHG 0
M  POLY_PROPERTIES PROTEIN POLYMER ALPHA_AA ALIPHATIC
M  END

$$$$
DHA_new
     RDKit          3D

 20 19  0  0  0  0  0  0  0  0999 V2000
    2.6671   -1.0859    2.5731 C   0  0  0  0  0  0  0  0  0  0  0  0
    1.7058   -0.2169    1.8688 N   0  0  0  0  0  0  0  0  0  0  0  0
    0.5566   -0.7913    1.2956 C   0  0  0  0  0  0  0  0  0  0  0  0
    0.4109   -2.0561    1.4215 O   0  0  0  0  0  0  0  0  0  0  0  0
   -0.4697   -0.0334    0.5720 C   0  0  0  0  0  0  0  0  0  0  0  0
   -0.3117    1.2732    0.4462 C   0  0  0  0  0  0  0  0  0  0  0  0
   -1.5734   -0.7439    0.0481 N   0  0  0  0  0  0  0  0  0  0  0  0
   -2.6621   -0.2531   -0.6672 C   0  0  0  0  0  0  0  0  0  0  0  0
   -3.7466   -1.1783   -1.1440 C   0  0  0  0  0  0  0  0  0  0  0  0
   -2.8262    0.9477   -0.9627 O   0  0  0  0  0  0  0  0  0  0  0  0
    2.0781   -1.9137    2.9895 H   0  0  0  0  0  0  0  0  0  0  0  0
    3.4180   -1.4795    1.8430 H   0  0  0  0  0  0  0  0  0  0  0  0
    3.1533   -0.5432    3.3846 H   0  0  0  0  0  0  0  0  0  0  0  0
    1.9541    0.7983    1.8442 H   0  0  0  0  0  0  0  0  0  0  0  0
    0.5656    1.7683    0.8743 H   0  0  0  0  0  0  0  0  0  0  0  0
   -1.0189    1.9106   -0.0717 H   0  0  0  0  0  0  0  0  0  0  0  0
   -1.5626   -1.8031    0.2309 H   0  0  0  0  0  0  0  0  0  0  0  0
   -3.5633   -1.3771   -2.2176 H   0  0  0  0  0  0  0  0  0  0  0  0
   -4.7490   -0.7333   -0.9812 H   0  0  0  0  0  0  0  0  0  0  0  0
   -3.6324   -2.1413   -0.6065 H   0  0  0  0  0  0  0  0  0  0  0  0
  1  2  1  0
  1 11  1  0
  1 12  1  0
  1 13  1  0
  2  3  1  0
  2 14  1  0
  3  4  2  0
  3  5  1  0
  5  6  2  3
  5  7  1  0
  6 15  1  0
  6 16  1  0
  7  8  1  0
  7 17  1  0
  8  9  1  0
  8 10  2  0
  9 18  1  0
  9 19  1  0
  9 20  1  0
M  END

> <RosettaParamsInstructions>
M  ROOT 7
M  POLY_N_BB 7
M  POLY_CA_BB 5
M  POLY_C_BB 3
M  POLY_O_BB 4
M  POLY_IGNORE 1 10 9 14 11 12 13 18 19 20
M  POLY_UPPER 2
M  POLY_LOWER 8
M  POLY_CHG 0
M  POLY_PROPERTIES PROTEIN POLYMER ALPHA_AA ALIPHATIC
M  END

$$$$
DHA_new
     RDKit          3D

 20 19  0  0  0  0  0  0  0  0999 V2000
    2.6775   -1.0649    2.5800 C   0  0  0  0  0  0  0  0  0  0  0  0
    1.7094   -0.2570    1.8760 N   0  0  0  0  0  0  0  0  0  0  0  0
    0.5583   -0.8221    1.3006 C   0  0  0  0  0  0  0  0  0  0  0  0
    0.4146   -2.0879    1.4320 O   0  0  0  0  0  0  0  0  0  0  0  0
   -0.4720   -0.0506    0.5688 C   0  0  0  0  0  0  0  0  0  0  0  0
   -0.3461    1.2466    0.4225 C   0  0  0  0  0  0  0  0  0  0  0  0
   -1.5582   -0.7572    0.0584 N   0  0  0  0  0  0  0  0  0  0  0  0
   -2.6410   -0.2316   -0.6579 C   0  0  0  0  0  0  0  0  0  0  0  0
   -3.7465   -1.1567   -1.1431 C   0  0  0  0  0  0  0  0  0  0  0  0
   -2.8255    0.9669   -0.9667 O   0  0  0  0  0  0  0  0  0  0  0  0
    2.7577   -0.6834    3.6216 H   0  0  0  0  0  0  0  0  0  0  0  0
    2.3735   -2.1332    2.6289 H   0  0  0  0  0  0  0  0  0  0  0  0
    3.6744   -1.0508    2.0911 H   0  0  0  0  0  0  0  0  0  0  0  0
    1.8828    0.7588    1.7999 H   0  0  0  0  0  0  0  0  0  0  0  0
   -1.0489    1.8509   -0.0899 H   0  0  0  0  0  0  0  0  0  0  0  0
    0.5087    1.8002    0.8275 H   0  0  0  0  0  0  0  0  0  0  0  0
   -1.5731   -1.8120    0.2276 H   0  0  0  0  0  0  0  0  0  0  0  0
   -4.3389   -0.6703   -1.9362 H   0  0  0  0  0  0  0  0  0  0  0  0
   -4.4012   -1.4593   -0.3091 H   0  0  0  0  0  0  0  0  0  0  0  0
   -3.2120   -2.0385   -1.5914 H   0  0  0  0  0  0  0  0  0  0  0  0
  1  2  1  0
  1 11  1  0
  1 12  1  0
  1 13  1  0
  2  3  1  0
  2 14  1  0
  3  4  2  0
  3  5  1  0
  5  6  2  3
  5  7  1  0
  6 15  1  0
  6 16  1  0
  7  8  1  0
  7 17  1  0
  8  9  1  0
  8 10  2  0
  9 18  1  0
  9 19  1  0
  9 20  1  0
M  END

> <RosettaParamsInstructions>
M  ROOT 7
M  POLY_N_BB 7
M  POLY_CA_BB 5
M  POLY_C_BB 3
M  POLY_O_BB 4
M  POLY_IGNORE 1 10 9 14 11 12 13 18 19 20
M  POLY_UPPER 2
M  POLY_LOWER 8
M  POLY_CHG 0
M  POLY_PROPERTIES PROTEIN POLYMER ALPHA_AA ALIPHATIC
M  END

$$$$
DHA_new
     RDKit          3D

 20 19  0  0  0  0  0  0  0  0999 V2000
    2.6123   -1.0695    2.6559 C   0  0  0  0  0  0  0  0  0  0  0  0
    1.6918   -0.2389    1.8672 N   0  0  0  0  0  0  0  0  0  0  0  0
    0.5406   -0.8106    1.3443 C   0  0  0  0  0  0  0  0  0  0  0  0
    0.3053   -2.0291    1.5544 O   0  0  0  0  0  0  0  0  0  0  0  0
   -0.4361   -0.0634    0.5462 C   0  0  0  0  0  0  0  0  0  0  0  0
   -0.2341    1.2010    0.3030 C   0  0  0  0  0  0  0  0  0  0  0  0
   -1.5633   -0.7530    0.0716 N   0  0  0  0  0  0  0  0  0  0  0  0
   -2.6219   -0.2632   -0.7014 C   0  0  0  0  0  0  0  0  0  0  0  0
   -3.7628   -1.1785   -1.1192 C   0  0  0  0  0  0  0  0  0  0  0  0
   -2.7442    0.9080   -1.1114 O   0  0  0  0  0  0  0  0  0  0  0  0
    2.8807   -0.4748    3.5536 H   0  0  0  0  0  0  0  0  0  0  0  0
    2.1189   -1.9943    2.9734 H   0  0  0  0  0  0  0  0  0  0  0  0
    3.5389   -1.2216    2.0785 H   0  0  0  0  0  0  0  0  0  0  0  0
    1.9685    0.7352    1.7522 H   0  0  0  0  0  0  0  0  0  0  0  0
   -0.9047    1.7985   -0.2693 H   0  0  0  0  0  0  0  0  0  0  0  0
    0.6493    1.6872    0.6906 H   0  0  0  0  0  0  0  0  0  0  0  0
   -1.6300   -1.7904    0.3302 H   0  0  0  0  0  0  0  0  0  0  0  0
   -3.7874   -1.1076   -2.2316 H   0  0  0  0  0  0  0  0  0  0  0  0
   -3.5160   -2.1940   -0.8035 H   0  0  0  0  0  0  0  0  0  0  0  0
   -4.7123   -0.7933   -0.7438 H   0  0  0  0  0  0  0  0  0  0  0  0
  1  2  1  0
  1 11  1  0
  1 12  1  0
  1 13  1  0
  2  3  1  0
  2 14  1  0
  3  4  2  0
  3  5  1  0
  5  6  2  3
  5  7  1  0
  6 15  1  0
  6 16  1  0
  7  8  1  0
  7 17  1  0
  8  9  1  0
  8 10  2  0
  9 18  1  0
  9 19  1  0
  9 20  1  0
M  END

> <RosettaParamsInstructions>
M  ROOT 7
M  POLY_N_BB 7
M  POLY_CA_BB 5
M  POLY_C_BB 3
M  POLY_O_BB 4
M  POLY_IGNORE 1 10 9 14 11 12 13 18 19 20
M  POLY_UPPER 2
M  POLY_LOWER 8
M  POLY_CHG 0
M  POLY_PROPERTIES PROTEIN POLYMER ALPHA_AA ALIPHATIC
M  END

$$$$
DHA_new
     RDKit          3D

 20 19  0  0  0  0  0  0  0  0999 V2000
    2.6546   -1.0897    2.5642 C   0  0  0  0  0  0  0  0  0  0  0  0
    1.7008   -0.1992    1.8591 N   0  0  0  0  0  0  0  0  0  0  0  0
    0.5660   -0.8115    1.2948 C   0  0  0  0  0  0  0  0  0  0  0  0
    0.3972   -2.0780    1.4038 O   0  0  0  0  0  0  0  0  0  0  0  0
   -0.4493   -0.0241    0.5707 C   0  0  0  0  0  0  0  0  0  0  0  0
   -0.3166    1.2758    0.4350 C   0  0  0  0  0  0  0  0  0  0  0  0
   -1.5513   -0.7597    0.0458 N   0  0  0  0  0  0  0  0  0  0  0  0
   -2.6253   -0.2295   -0.6706 C   0  0  0  0  0  0  0  0  0  0  0  0
   -3.7008   -1.1884   -1.1433 C   0  0  0  0  0  0  0  0  0  0  0  0
   -2.8258    0.9606   -0.9835 O   0  0  0  0  0  0  0  0  0  0  0  0
    3.6893   -0.6981    2.4409 H   0  0  0  0  0  0  0  0  0  0  0  0
    2.3926   -1.0864    3.6557 H   0  0  0  0  0  0  0  0  0  0  0  0
    2.5441   -2.1284    2.1932 H   0  0  0  0  0  0  0  0  0  0  0  0
    1.9293    0.8141    1.8267 H   0  0  0  0  0  0  0  0  0  0  0  0
   -1.0309    1.8705   -0.0811 H   0  0  0  0  0  0  0  0  0  0  0  0
    0.5589    1.7523    0.8698 H   0  0  0  0  0  0  0  0  0  0  0  0
   -1.5613   -1.8064    0.2117 H   0  0  0  0  0  0  0  0  0  0  0  0
   -4.6564   -0.9518   -0.6297 H   0  0  0  0  0  0  0  0  0  0  0  0
   -3.4473   -2.2268   -0.8907 H   0  0  0  0  0  0  0  0  0  0  0  0
   -3.8740   -1.0477   -2.2316 H   0  0  0  0  0  0  0  0  0  0  0  0
  1  2  1  0
  1 11  1  0
  1 12  1  0
  1 13  1  0
  2  3  1  0
  2 14  1  0
  3  4  2  0
  3  5  1  0
  5  6  2  3
  5  7  1  0
  6 15  1  0
  6 16  1  0
  7  8  1  0
  7 17  1  0
  8  9  1  0
  8 10  2  0
  9 18  1  0
  9 19  1  0
  9 20  1  0
M  END

> <RosettaParamsInstructions>
M  ROOT 7
M  POLY_N_BB 7
M  POLY_CA_BB 5
M  POLY_C_BB 3
M  POLY_O_BB 4
M  POLY_IGNORE 1 10 9 14 11 12 13 18 19 20
M  POLY_UPPER 2
M  POLY_LOWER 8
M  POLY_CHG 0
M  POLY_PROPERTIES PROTEIN POLYMER ALPHA_AA ALIPHATIC
M  END

$$$$
DHA_new
     RDKit          3D

 20 19  0  0  0  0  0  0  0  0999 V2000
    2.7078   -1.0441    2.5500 C   0  0  0  0  0  0  0  0  0  0  0  0
    1.6908   -0.2238    1.8703 N   0  0  0  0  0  0  0  0  0  0  0  0
    0.5860   -0.8315    1.2944 C   0  0  0  0  0  0  0  0  0  0  0  0
    0.4464   -2.0998    1.3508 O   0  0  0  0  0  0  0  0  0  0  0  0
   -0.4560   -0.0847    0.6083 C   0  0  0  0  0  0  0  0  0  0  0  0
   -0.3324    1.2222    0.5385 C   0  0  0  0  0  0  0  0  0  0  0  0
   -1.5546   -0.7895    0.0465 N   0  0  0  0  0  0  0  0  0  0  0  0
   -2.6504   -0.2531   -0.6482 C   0  0  0  0  0  0  0  0  0  0  0  0
   -3.7469   -1.1485   -1.1881 C   0  0  0  0  0  0  0  0  0  0  0  0
   -2.8403    0.9553   -0.8894 O   0  0  0  0  0  0  0  0  0  0  0  0
    2.2229   -1.9543    3.0006 H   0  0  0  0  0  0  0  0  0  0  0  0
    3.2236   -0.4452    3.3049 H   0  0  0  0  0  0  0  0  0  0  0  0
    3.3910   -1.3980    1.7752 H   0  0  0  0  0  0  0  0  0  0  0  0
    1.8530    0.7890    1.8547 H   0  0  0  0  0  0  0  0  0  0  0  0
    0.5092    1.7668    0.9683 H   0  0  0  0  0  0  0  0  0  0  0  0
   -1.0590    1.8653    0.0468 H   0  0  0  0  0  0  0  0  0  0  0  0
   -1.5451   -1.8584    0.1678 H   0  0  0  0  0  0  0  0  0  0  0  0
   -3.6146   -2.1729   -0.7744 H   0  0  0  0  0  0  0  0  0  0  0  0
   -4.7119   -0.7591   -0.8595 H   0  0  0  0  0  0  0  0  0  0  0  0
   -3.7260   -1.1877   -2.2767 H   0  0  0  0  0  0  0  0  0  0  0  0
  1  2  1  0
  1 11  1  0
  1 12  1  0
  1 13  1  0
  2  3  1  0
  2 14  1  0
  3  4  2  0
  3  5  1  0
  5  6  2  3
  5  7  1  0
  6 15  1  0
  6 16  1  0
  7  8  1  0
  7 17  1  0
  8  9  1  0
  8 10  2  0
  9 18  1  0
  9 19  1  0
  9 20  1  0
M  END

> <RosettaParamsInstructions>
M  ROOT 7
M  POLY_N_BB 7
M  POLY_CA_BB 5
M  POLY_C_BB 3
M  POLY_O_BB 4
M  POLY_IGNORE 1 10 9 14 11 12 13 18 19 20
M  POLY_UPPER 2
M  POLY_LOWER 8
M  POLY_CHG 0
M  POLY_PROPERTIES PROTEIN POLYMER ALPHA_AA ALIPHATIC
M  END

$$$$
DHA_new
     RDKit          3D

 20 19  0  0  0  0  0  0  0  0999 V2000
    2.6661   -1.0560    2.5602 C   0  0  0  0  0  0  0  0  0  0  0  0
    1.6852   -0.2407    1.8495 N   0  0  0  0  0  0  0  0  0  0  0  0
    0.5695   -0.8424    1.3039 C   0  0  0  0  0  0  0  0  0  0  0  0
    0.3948   -2.0834    1.4155 O   0  0  0  0  0  0  0  0  0  0  0  0
   -0.4468   -0.0563    0.5775 C   0  0  0  0  0  0  0  0  0  0  0  0
   -0.3235    1.2267    0.4288 C   0  0  0  0  0  0  0  0  0  0  0  0
   -1.5581   -0.7531    0.0508 N   0  0  0  0  0  0  0  0  0  0  0  0
   -2.6259   -0.2319   -0.6599 C   0  0  0  0  0  0  0  0  0  0  0  0
   -3.7258   -1.1589   -1.1405 C   0  0  0  0  0  0  0  0  0  0  0  0
   -2.7781    0.9528   -0.9520 O   0  0  0  0  0  0  0  0  0  0  0  0
    3.6746   -0.6444    2.3834 H   0  0  0  0  0  0  0  0  0  0  0  0
    2.5712   -2.0992    2.2293 H   0  0  0  0  0  0  0  0  0  0  0  0
    2.4121   -1.0248    3.6463 H   0  0  0  0  0  0  0  0  0  0  0  0
    1.8873    0.7576    1.7956 H   0  0  0  0  0  0  0  0  0  0  0  0
   -1.0180    1.8334   -0.0794 H   0  0  0  0  0  0  0  0  0  0  0  0
    0.5555    1.7253    0.8544 H   0  0  0  0  0  0  0  0  0  0  0  0
   -1.5632   -1.8011    0.2280 H   0  0  0  0  0  0  0  0  0  0  0  0
   -3.5164   -1.4956   -2.1660 H   0  0  0  0  0  0  0  0  0  0  0  0
   -4.6843   -0.6320   -1.1337 H   0  0  0  0  0  0  0  0  0  0  0  0
   -3.7827   -2.0281   -0.4509 H   0  0  0  0  0  0  0  0  0  0  0  0
  1  2  1  0
  1 11  1  0
  1 12  1  0
  1 13  1  0
  2  3  1  0
  2 14  1  0
  3  4  2  0
  3  5  1  0
  5  6  2  3
  5  7  1  0
  6 15  1  0
  6 16  1  0
  7  8  1  0
  7 17  1  0
  8  9  1  0
  8 10  2  0
  9 18  1  0
  9 19  1  0
  9 20  1  0
M  END

> <RosettaParamsInstructions>
M  ROOT 7
M  POLY_N_BB 7
M  POLY_CA_BB 5
M  POLY_C_BB 3
M  POLY_O_BB 4
M  POLY_IGNORE 1 10 9 14 11 12 13 18 19 20
M  POLY_UPPER 2
M  POLY_LOWER 8
M  POLY_CHG 0
M  POLY_PROPERTIES PROTEIN POLYMER ALPHA_AA ALIPHATIC
M  END

$$$$
DHA_new
     RDKit          3D

 20 19  0  0  0  0  0  0  0  0999 V2000
    2.6905   -1.0580    2.5762 C   0  0  0  0  0  0  0  0  0  0  0  0
    1.6925   -0.2549    1.8628 N   0  0  0  0  0  0  0  0  0  0  0  0
    0.5514   -0.8263    1.2907 C   0  0  0  0  0  0  0  0  0  0  0  0
    0.4193   -2.0875    1.4199 O   0  0  0  0  0  0  0  0  0  0  0  0
   -0.4792   -0.0664    0.5653 C   0  0  0  0  0  0  0  0  0  0  0  0
   -0.3640    1.2252    0.4213 C   0  0  0  0  0  0  0  0  0  0  0  0
   -1.5807   -0.7754    0.0388 N   0  0  0  0  0  0  0  0  0  0  0  0
   -2.6407   -0.2373   -0.6674 C   0  0  0  0  0  0  0  0  0  0  0  0
   -3.7362   -1.1587   -1.1556 C   0  0  0  0  0  0  0  0  0  0  0  0
   -2.7656    0.9650   -0.9368 O   0  0  0  0  0  0  0  0  0  0  0  0
    3.1853   -0.4612    3.3732 H   0  0  0  0  0  0  0  0  0  0  0  0
    2.1393   -1.8900    3.0626 H   0  0  0  0  0  0  0  0  0  0  0  0
    3.4559   -1.4431    1.8961 H   0  0  0  0  0  0  0  0  0  0  0  0
    1.8898    0.7558    1.8126 H   0  0  0  0  0  0  0  0  0  0  0  0
   -1.0287    1.8917   -0.0754 H   0  0  0  0  0  0  0  0  0  0  0  0
    0.5127    1.7280    0.8504 H   0  0  0  0  0  0  0  0  0  0  0  0
   -1.6240   -1.8504    0.1894 H   0  0  0  0  0  0  0  0  0  0  0  0
   -3.4180   -1.4860   -2.1648 H   0  0  0  0  0  0  0  0  0  0  0  0
   -4.6829   -0.6052   -1.1662 H   0  0  0  0  0  0  0  0  0  0  0  0
   -3.8230   -2.0174   -0.4522 H   0  0  0  0  0  0  0  0  0  0  0  0
  1  2  1  0
  1 11  1  0
  1 12  1  0
  1 13  1  0
  2  3  1  0
  2 14  1  0
  3  4  2  0
  3  5  1  0
  5  6  2  3
  5  7  1  0
  6 15  1  0
  6 16  1  0
  7  8  1  0
  7 17  1  0
  8  9  1  0
  8 10  2  0
  9 18  1  0
  9 19  1  0
  9 20  1  0
M  END

> <RosettaParamsInstructions>
M  ROOT 7
M  POLY_N_BB 7
M  POLY_CA_BB 5
M  POLY_C_BB 3
M  POLY_O_BB 4
M  POLY_IGNORE 1 10 9 14 11 12 13 18 19 20
M  POLY_UPPER 2
M  POLY_LOWER 8
M  POLY_CHG 0
M  POLY_PROPERTIES PROTEIN POLYMER ALPHA_AA ALIPHATIC
M  END

$$$$
DHA_new
     RDKit          3D

 20 19  0  0  0  0  0  0  0  0999 V2000
    2.6907   -1.0565    2.5645 C   0  0  0  0  0  0  0  0  0  0  0  0
    1.6651   -0.2149    1.8996 N   0  0  0  0  0  0  0  0  0  0  0  0
    0.5725   -0.8192    1.2875 C   0  0  0  0  0  0  0  0  0  0  0  0
    0.4647   -2.0965    1.3053 O   0  0  0  0  0  0  0  0  0  0  0  0
   -0.4775   -0.0691    0.6138 C   0  0  0  0  0  0  0  0  0  0  0  0
   -0.3985    1.2395    0.5769 C   0  0  0  0  0  0  0  0  0  0  0  0
   -1.5500   -0.7760    0.0201 N   0  0  0  0  0  0  0  0  0  0  0  0
   -2.6386   -0.2625   -0.6614 C   0  0  0  0  0  0  0  0  0  0  0  0
   -3.7033   -1.1709   -1.2377 C   0  0  0  0  0  0  0  0  0  0  0  0
   -2.8343    0.9459   -0.8556 O   0  0  0  0  0  0  0  0  0  0  0  0
    3.0321   -0.5339    3.4581 H   0  0  0  0  0  0  0  0  0  0  0  0
    3.5163   -1.2694    1.8754 H   0  0  0  0  0  0  0  0  0  0  0  0
    2.2411   -2.0151    2.8805 H   0  0  0  0  0  0  0  0  0  0  0  0
    1.8002    0.8029    1.9150 H   0  0  0  0  0  0  0  0  0  0  0  0
   -1.1239    1.8918    0.1027 H   0  0  0  0  0  0  0  0  0  0  0  0
    0.4303    1.7349    1.0388 H   0  0  0  0  0  0  0  0  0  0  0  0
   -1.5075   -1.8417    0.1138 H   0  0  0  0  0  0  0  0  0  0  0  0
   -4.0455   -0.7639   -2.2127 H   0  0  0  0  0  0  0  0  0  0  0  0
   -4.5131   -1.2235   -0.5017 H   0  0  0  0  0  0  0  0  0  0  0  0
   -3.2271   -2.1541   -1.4423 H   0  0  0  0  0  0  0  0  0  0  0  0
  1  2  1  0
  1 11  1  0
  1 12  1  0
  1 13  1  0
  2  3  1  0
  2 14  1  0
  3  4  2  0
  3  5  1  0
  5  6  2  3
  5  7  1  0
  6 15  1  0
  6 16  1  0
  7  8  1  0
  7 17  1  0
  8  9  1  0
  8 10  2  0
  9 18  1  0
  9 19  1  0
  9 20  1  0
M  END

> <RosettaParamsInstructions>
M  ROOT 7
M  POLY_N_BB 7
M  POLY_CA_BB 5
M  POLY_C_BB 3
M  POLY_O_BB 4
M  POLY_IGNORE 1 10 9 14 11 12 13 18 19 20
M  POLY_UPPER 2
M  POLY_LOWER 8
M  POLY_CHG 0
M  POLY_PROPERTIES PROTEIN POLYMER ALPHA_AA ALIPHATIC
M  END

$$$$
DHA_new
     RDKit          3D

 20 19  0  0  0  0  0  0  0  0999 V2000
    2.6910   -1.0642    2.5028 C   0  0  0  0  0  0  0  0  0  0  0  0
    1.6808   -0.2485    1.8308 N   0  0  0  0  0  0  0  0  0  0  0  0
    0.5689   -0.8764    1.2794 C   0  0  0  0  0  0  0  0  0  0  0  0
    0.4554   -2.1281    1.3698 O   0  0  0  0  0  0  0  0  0  0  0  0
   -0.4742   -0.0663    0.5895 C   0  0  0  0  0  0  0  0  0  0  0  0
   -0.3631    1.2239    0.4930 C   0  0  0  0  0  0  0  0  0  0  0  0
   -1.5624   -0.7801    0.0621 N   0  0  0  0  0  0  0  0  0  0  0  0
   -2.6457   -0.2181   -0.6200 C   0  0  0  0  0  0  0  0  0  0  0  0
   -3.7453   -1.1346   -1.1288 C   0  0  0  0  0  0  0  0  0  0  0  0
   -2.8089    0.9837   -0.8607 O   0  0  0  0  0  0  0  0  0  0  0  0
    3.6700   -0.8416    2.0238 H   0  0  0  0  0  0  0  0  0  0  0  0
    2.4637   -2.1471    2.4085 H   0  0  0  0  0  0  0  0  0  0  0  0
    2.6937   -0.7629    3.5509 H   0  0  0  0  0  0  0  0  0  0  0  0
    1.8528    0.7537    1.8043 H   0  0  0  0  0  0  0  0  0  0  0  0
   -1.0793    1.8409    0.0118 H   0  0  0  0  0  0  0  0  0  0  0  0
    0.4968    1.7564    0.9136 H   0  0  0  0  0  0  0  0  0  0  0  0
   -1.5586   -1.8412    0.1953 H   0  0  0  0  0  0  0  0  0  0  0  0
   -3.7592   -2.0162   -0.4565 H   0  0  0  0  0  0  0  0  0  0  0  0
   -4.7042   -0.6056   -1.0975 H   0  0  0  0  0  0  0  0  0  0  0  0
   -3.4784   -1.4797   -2.1311 H   0  0  0  0  0  0  0  0  0  0  0  0
  1  2  1  0
  1 11  1  0
  1 12  1  0
  1 13  1  0
  2  3  1  0
  2 14  1  0
  3  4  2  0
  3  5  1  0
  5  6  2  3
  5  7  1  0
  6 15  1  0
  6 16  1  0
  7  8  1  0
  7 17  1  0
  8  9  1  0
  8 10  2  0
  9 18  1  0
  9 19  1  0
  9 20  1  0
M  END

> <RosettaParamsInstructions>
M  ROOT 7
M  POLY_N_BB 7
M  POLY_CA_BB 5
M  POLY_C_BB 3
M  POLY_O_BB 4
M  POLY_IGNORE 1 10 9 14 11 12 13 18 19 20
M  POLY_UPPER 2
M  POLY_LOWER 8
M  POLY_CHG 0
M  POLY_PROPERTIES PROTEIN POLYMER ALPHA_AA ALIPHATIC
M  END

$$$$
DHA_new
     RDKit          3D

 20 19  0  0  0  0  0  0  0  0999 V2000
    2.6540   -1.0670    2.5523 C   0  0  0  0  0  0  0  0  0  0  0  0
    1.6890   -0.2124    1.8590 N   0  0  0  0  0  0  0  0  0  0  0  0
    0.5683   -0.8184    1.3009 C   0  0  0  0  0  0  0  0  0  0  0  0
    0.4062   -2.0539    1.3976 O   0  0  0  0  0  0  0  0  0  0  0  0
   -0.4620   -0.0515    0.5831 C   0  0  0  0  0  0  0  0  0  0  0  0
   -0.3222    1.2428    0.4644 C   0  0  0  0  0  0  0  0  0  0  0  0
   -1.5722   -0.7725    0.0490 N   0  0  0  0  0  0  0  0  0  0  0  0
   -2.6566   -0.2433   -0.6635 C   0  0  0  0  0  0  0  0  0  0  0  0
   -3.7400   -1.1714   -1.1501 C   0  0  0  0  0  0  0  0  0  0  0  0
   -2.7937    0.9637   -0.9298 O   0  0  0  0  0  0  0  0  0  0  0  0
    2.0937   -1.8579    3.1180 H   0  0  0  0  0  0  0  0  0  0  0  0
    3.3164   -1.4924    1.7845 H   0  0  0  0  0  0  0  0  0  0  0  0
    3.2609   -0.5117    3.2795 H   0  0  0  0  0  0  0  0  0  0  0  0
    1.9431    0.8019    1.8499 H   0  0  0  0  0  0  0  0  0  0  0  0
   -1.0158    1.9087   -0.0420 H   0  0  0  0  0  0  0  0  0  0  0  0
    0.5523    1.7217    0.8989 H   0  0  0  0  0  0  0  0  0  0  0  0
   -1.5794   -1.8317    0.2085 H   0  0  0  0  0  0  0  0  0  0  0  0
   -3.3249   -2.2128   -1.1729 H   0  0  0  0  0  0  0  0  0  0  0  0
   -4.5995   -1.1118   -0.4760 H   0  0  0  0  0  0  0  0  0  0  0  0
   -4.0242   -0.8824   -2.1703 H   0  0  0  0  0  0  0  0  0  0  0  0
  1  2  1  0
  1 11  1  0
  1 12  1  0
  1 13  1  0
  2  3  1  0
  2 14  1  0
  3  4  2  0
  3  5  1  0
  5  6  2  3
  5  7  1  0
  6 15  1  0
  6 16  1  0
  7  8  1  0
  7 17  1  0
  8  9  1  0
  8 10  2  0
  9 18  1  0
  9 19  1  0
  9 20  1  0
M  END

> <RosettaParamsInstructions>
M  ROOT 7
M  POLY_N_BB 7
M  POLY_CA_BB 5
M  POLY_C_BB 3
M  POLY_O_BB 4
M  POLY_IGNORE 1 10 9 14 11 12 13 18 19 20
M  POLY_UPPER 2
M  POLY_LOWER 8
M  POLY_CHG 0
M  POLY_PROPERTIES PROTEIN POLYMER ALPHA_AA ALIPHATIC
M  END

$$$$
DHA_new
     RDKit          3D

 20 19  0  0  0  0  0  0  0  0999 V2000
    2.6216   -1.0884    2.5941 C   0  0  0  0  0  0  0  0  0  0  0  0
    1.6656   -0.2351    1.8643 N   0  0  0  0  0  0  0  0  0  0  0  0
    0.5250   -0.8241    1.3041 C   0  0  0  0  0  0  0  0  0  0  0  0
    0.3545   -2.0719    1.4444 O   0  0  0  0  0  0  0  0  0  0  0  0
   -0.4558   -0.0480    0.5747 C   0  0  0  0  0  0  0  0  0  0  0  0
   -0.2826    1.2366    0.4289 C   0  0  0  0  0  0  0  0  0  0  0  0
   -1.5750   -0.7542    0.0497 N   0  0  0  0  0  0  0  0  0  0  0  0
   -2.6459   -0.2458   -0.6813 C   0  0  0  0  0  0  0  0  0  0  0  0
   -3.7392   -1.1595   -1.1510 C   0  0  0  0  0  0  0  0  0  0  0  0
   -2.7498    0.9509   -0.9738 O   0  0  0  0  0  0  0  0  0  0  0  0
    3.5378   -1.1059    1.9652 H   0  0  0  0  0  0  0  0  0  0  0  0
    2.8666   -0.5607    3.5234 H   0  0  0  0  0  0  0  0  0  0  0  0
    2.2041   -2.1059    2.7480 H   0  0  0  0  0  0  0  0  0  0  0  0
    1.9253    0.7692    1.8238 H   0  0  0  0  0  0  0  0  0  0  0  0
    0.5948    1.7566    0.8470 H   0  0  0  0  0  0  0  0  0  0  0  0
   -0.9637    1.8809   -0.0980 H   0  0  0  0  0  0  0  0  0  0  0  0
   -1.5992   -1.8000    0.2373 H   0  0  0  0  0  0  0  0  0  0  0  0
   -3.2172   -2.1001   -1.4722 H   0  0  0  0  0  0  0  0  0  0  0  0
   -4.3874   -1.4312   -0.2945 H   0  0  0  0  0  0  0  0  0  0  0  0
   -4.2860   -0.7158   -1.9932 H   0  0  0  0  0  0  0  0  0  0  0  0
  1  2  1  0
  1 11  1  0
  1 12  1  0
  1 13  1  0
  2  3  1  0
  2 14  1  0
  3  4  2  0
  3  5  1  0
  5  6  2  3
  5  7  1  0
  6 15  1  0
  6 16  1  0
  7  8  1  0
  7 17  1  0
  8  9  1  0
  8 10  2  0
  9 18  1  0
  9 19  1  0
  9 20  1  0
M  END

> <RosettaParamsInstructions>
M  ROOT 7
M  POLY_N_BB 7
M  POLY_CA_BB 5
M  POLY_C_BB 3
M  POLY_O_BB 4
M  POLY_IGNORE 1 10 9 14 11 12 13 18 19 20
M  POLY_UPPER 2
M  POLY_LOWER 8
M  POLY_CHG 0
M  POLY_PROPERTIES PROTEIN POLYMER ALPHA_AA ALIPHATIC
M  END

$$$$
DHA_new
     RDKit          3D

 20 19  0  0  0  0  0  0  0  0999 V2000
    2.6685   -1.0657    2.5900 C   0  0  0  0  0  0  0  0  0  0  0  0
    1.6930   -0.2513    1.8750 N   0  0  0  0  0  0  0  0  0  0  0  0
    0.5404   -0.8244    1.2962 C   0  0  0  0  0  0  0  0  0  0  0  0
    0.3783   -2.0756    1.4176 O   0  0  0  0  0  0  0  0  0  0  0  0
   -0.4797   -0.0526    0.5623 C   0  0  0  0  0  0  0  0  0  0  0  0
   -0.3333    1.2298    0.4262 C   0  0  0  0  0  0  0  0  0  0  0  0
   -1.5752   -0.7739    0.0428 N   0  0  0  0  0  0  0  0  0  0  0  0
   -2.6499   -0.2288   -0.6841 C   0  0  0  0  0  0  0  0  0  0  0  0
   -3.7463   -1.1728   -1.1655 C   0  0  0  0  0  0  0  0  0  0  0  0
   -2.8082    0.9600   -0.9832 O   0  0  0  0  0  0  0  0  0  0  0  0
    3.0434   -0.5070    3.4600 H   0  0  0  0  0  0  0  0  0  0  0  0
    2.2289   -2.0054    2.9316 H   0  0  0  0  0  0  0  0  0  0  0  0
    3.5440   -1.2800    1.9355 H   0  0  0  0  0  0  0  0  0  0  0  0
    1.9237    0.7632    1.8349 H   0  0  0  0  0  0  0  0  0  0  0  0
    0.5483    1.7429    0.8560 H   0  0  0  0  0  0  0  0  0  0  0  0
   -1.0383    1.8481   -0.0957 H   0  0  0  0  0  0  0  0  0  0  0  0
   -1.5944   -1.8283    0.2141 H   0  0  0  0  0  0  0  0  0  0  0  0
   -4.5589   -1.0924   -0.4212 H   0  0  0  0  0  0  0  0  0  0  0  0
   -3.3183   -2.2063   -1.1980 H   0  0  0  0  0  0  0  0  0  0  0  0
   -4.0724   -0.8317   -2.1538 H   0  0  0  0  0  0  0  0  0  0  0  0
  1  2  1  0
  1 11  1  0
  1 12  1  0
  1 13  1  0
  2  3  1  0
  2 14  1  0
  3  4  2  0
  3  5  1  0
  5  6  2  3
  5  7  1  0
  6 15  1  0
  6 16  1  0
  7  8  1  0
  7 17  1  0
  8  9  1  0
  8 10  2  0
  9 18  1  0
  9 19  1  0
  9 20  1  0
M  END

> <RosettaParamsInstructions>
M  ROOT 7
M  POLY_N_BB 7
M  POLY_CA_BB 5
M  POLY_C_BB 3
M  POLY_O_BB 4
M  POLY_IGNORE 1 10 9 14 11 12 13 18 19 20
M  POLY_UPPER 2
M  POLY_LOWER 8
M  POLY_CHG 0
M  POLY_PROPERTIES PROTEIN POLYMER ALPHA_AA ALIPHATIC
M  END

$$$$
DHA_new
     RDKit          3D

 20 19  0  0  0  0  0  0  0  0999 V2000
    2.6102   -1.0342    2.6789 C   0  0  0  0  0  0  0  0  0  0  0  0
    1.7214   -0.2355    1.8448 N   0  0  0  0  0  0  0  0  0  0  0  0
    0.5322   -0.8078    1.3603 C   0  0  0  0  0  0  0  0  0  0  0  0
    0.2823   -2.0193    1.6784 O   0  0  0  0  0  0  0  0  0  0  0  0
   -0.4421   -0.0890    0.5063 C   0  0  0  0  0  0  0  0  0  0  0  0
   -0.1840    1.1395    0.1865 C   0  0  0  0  0  0  0  0  0  0  0  0
   -1.5945   -0.7705    0.0856 N   0  0  0  0  0  0  0  0  0  0  0  0
   -2.6179   -0.2429   -0.7240 C   0  0  0  0  0  0  0  0  0  0  0  0
   -3.8011   -1.1358   -1.0817 C   0  0  0  0  0  0  0  0  0  0  0  0
   -2.6855    0.8876   -1.1991 O   0  0  0  0  0  0  0  0  0  0  0  0
    3.4196   -1.4623    2.0550 H   0  0  0  0  0  0  0  0  0  0  0  0
    2.0249   -1.8507    3.1291 H   0  0  0  0  0  0  0  0  0  0  0  0
    3.0795   -0.3811    3.4503 H   0  0  0  0  0  0  0  0  0  0  0  0
    2.0363    0.7270    1.6611 H   0  0  0  0  0  0  0  0  0  0  0  0
   -0.8510    1.7080   -0.4276 H   0  0  0  0  0  0  0  0  0  0  0  0
    0.7256    1.6432    0.5317 H   0  0  0  0  0  0  0  0  0  0  0  0
   -1.6857   -1.7862    0.4223 H   0  0  0  0  0  0  0  0  0  0  0  0
   -3.6643   -1.4180   -2.1367 H   0  0  0  0  0  0  0  0  0  0  0  0
   -3.8134   -1.9867   -0.3875 H   0  0  0  0  0  0  0  0  0  0  0  0
   -4.6989   -0.5375   -0.8925 H   0  0  0  0  0  0  0  0  0  0  0  0
  1  2  1  0
  1 11  1  0
  1 12  1  0
  1 13  1  0
  2  3  1  0
  2 14  1  0
  3  4  2  0
  3  5  1  0
  5  6  2  3
  5  7  1  0
  6 15  1  0
  6 16  1  0
  7  8  1  0
  7 17  1  0
  8  9  1  0
  8 10  2  0
  9 18  1  0
  9 19  1  0
  9 20  1  0
M  END

> <RosettaParamsInstructions>
M  ROOT 7
M  POLY_N_BB 7
M  POLY_CA_BB 5
M  POLY_C_BB 3
M  POLY_O_BB 4
M  POLY_IGNORE 1 10 9 14 11 12 13 18 19 20
M  POLY_UPPER 2
M  POLY_LOWER 8
M  POLY_CHG 0
M  POLY_PROPERTIES PROTEIN POLYMER ALPHA_AA ALIPHATIC
M  END

$$$$
DHA_new
     RDKit          3D

 20 19  0  0  0  0  0  0  0  0999 V2000
    2.6939   -1.0687    2.5693 C   0  0  0  0  0  0  0  0  0  0  0  0
    1.7129   -0.2352    1.8648 N   0  0  0  0  0  0  0  0  0  0  0  0
    0.5589   -0.8041    1.2903 C   0  0  0  0  0  0  0  0  0  0  0  0
    0.4281   -2.0686    1.4221 O   0  0  0  0  0  0  0  0  0  0  0  0
   -0.4707   -0.0497    0.5706 C   0  0  0  0  0  0  0  0  0  0  0  0
   -0.3313    1.2328    0.4408 C   0  0  0  0  0  0  0  0  0  0  0  0
   -1.5638   -0.7592    0.0544 N   0  0  0  0  0  0  0  0  0  0  0  0
   -2.6345   -0.2238   -0.6531 C   0  0  0  0  0  0  0  0  0  0  0  0
   -3.7354   -1.1568   -1.1372 C   0  0  0  0  0  0  0  0  0  0  0  0
   -2.8060    0.9666   -0.9478 O   0  0  0  0  0  0  0  0  0  0  0  0
    2.8662   -0.5939    3.5578 H   0  0  0  0  0  0  0  0  0  0  0  0
    2.2189   -2.0639    2.7628 H   0  0  0  0  0  0  0  0  0  0  0  0
    3.5929   -1.2135    1.9731 H   0  0  0  0  0  0  0  0  0  0  0  0
    1.8854    0.7796    1.7981 H   0  0  0  0  0  0  0  0  0  0  0  0
    0.5221    1.7753    0.8457 H   0  0  0  0  0  0  0  0  0  0  0  0
   -1.0532    1.8297   -0.0750 H   0  0  0  0  0  0  0  0  0  0  0  0
   -1.5573   -1.8142    0.2313 H   0  0  0  0  0  0  0  0  0  0  0  0
   -3.6815   -1.1770   -2.2460 H   0  0  0  0  0  0  0  0  0  0  0  0
   -4.7150   -0.8244   -0.7927 H   0  0  0  0  0  0  0  0  0  0  0  0
   -3.5368   -2.1832   -0.7886 H   0  0  0  0  0  0  0  0  0  0  0  0
  1  2  1  0
  1 11  1  0
  1 12  1  0
  1 13  1  0
  2  3  1  0
  2 14  1  0
  3  4  2  0
  3  5  1  0
  5  6  2  3
  5  7  1  0
  6 15  1  0
  6 16  1  0
  7  8  1  0
  7 17  1  0
  8  9  1  0
  8 10  2  0
  9 18  1  0
  9 19  1  0
  9 20  1  0
M  END

> <RosettaParamsInstructions>
M  ROOT 7
M  POLY_N_BB 7
M  POLY_CA_BB 5
M  POLY_C_BB 3
M  POLY_O_BB 4
M  POLY_IGNORE 1 10 9 14 11 12 13 18 19 20
M  POLY_UPPER 2
M  POLY_LOWER 8
M  POLY_CHG 0
M  POLY_PROPERTIES PROTEIN POLYMER ALPHA_AA ALIPHATIC
M  END

$$$$
DHA_new
     RDKit          3D

 20 19  0  0  0  0  0  0  0  0999 V2000
    2.6598   -1.0694    2.5981 C   0  0  0  0  0  0  0  0  0  0  0  0
    1.6987   -0.2387    1.8733 N   0  0  0  0  0  0  0  0  0  0  0  0
    0.5587   -0.8273    1.3215 C   0  0  0  0  0  0  0  0  0  0  0  0
    0.3591   -2.0849    1.4508 O   0  0  0  0  0  0  0  0  0  0  0  0
   -0.4645   -0.0721    0.5752 C   0  0  0  0  0  0  0  0  0  0  0  0
   -0.3179    1.2118    0.4099 C   0  0  0  0  0  0  0  0  0  0  0  0
   -1.5845   -0.7607    0.0547 N   0  0  0  0  0  0  0  0  0  0  0  0
   -2.6540   -0.2223   -0.6762 C   0  0  0  0  0  0  0  0  0  0  0  0
   -3.7512   -1.1604   -1.1345 C   0  0  0  0  0  0  0  0  0  0  0  0
   -2.7969    0.9777   -0.9946 O   0  0  0  0  0  0  0  0  0  0  0  0
    3.6800   -0.7407    2.2698 H   0  0  0  0  0  0  0  0  0  0  0  0
    2.5219   -2.1040    2.2617 H   0  0  0  0  0  0  0  0  0  0  0  0
    2.5929   -0.9181    3.6817 H   0  0  0  0  0  0  0  0  0  0  0  0
    1.9487    0.7645    1.8239 H   0  0  0  0  0  0  0  0  0  0  0  0
   -1.0176    1.8301   -0.1204 H   0  0  0  0  0  0  0  0  0  0  0  0
    0.5696    1.7221    0.8292 H   0  0  0  0  0  0  0  0  0  0  0  0
   -1.6288   -1.8282    0.2376 H   0  0  0  0  0  0  0  0  0  0  0  0
   -3.4682   -1.4992   -2.1309 H   0  0  0  0  0  0  0  0  0  0  0  0
   -4.7114   -0.6400   -1.1730 H   0  0  0  0  0  0  0  0  0  0  0  0
   -3.8011   -1.9924   -0.4169 H   0  0  0  0  0  0  0  0  0  0  0  0
  1  2  1  0
  1 11  1  0
  1 12  1  0
  1 13  1  0
  2  3  1  0
  2 14  1  0
  3  4  2  0
  3  5  1  0
  5  6  2  3
  5  7  1  0
  6 15  1  0
  6 16  1  0
  7  8  1  0
  7 17  1  0
  8  9  1  0
  8 10  2  0
  9 18  1  0
  9 19  1  0
  9 20  1  0
M  END

> <RosettaParamsInstructions>
M  ROOT 7
M  POLY_N_BB 7
M  POLY_CA_BB 5
M  POLY_C_BB 3
M  POLY_O_BB 4
M  POLY_IGNORE 1 10 9 14 11 12 13 18 19 20
M  POLY_UPPER 2
M  POLY_LOWER 8
M  POLY_CHG 0
M  POLY_PROPERTIES PROTEIN POLYMER ALPHA_AA ALIPHATIC
M  END

$$$$
DHA_new
     RDKit          3D

 20 19  0  0  0  0  0  0  0  0999 V2000
    2.6731   -1.0791    2.5727 C   0  0  0  0  0  0  0  0  0  0  0  0
    1.7129   -0.2082    1.8707 N   0  0  0  0  0  0  0  0  0  0  0  0
    0.5765   -0.7895    1.3005 C   0  0  0  0  0  0  0  0  0  0  0  0
    0.4467   -2.0655    1.4309 O   0  0  0  0  0  0  0  0  0  0  0  0
   -0.4438   -0.0376    0.5827 C   0  0  0  0  0  0  0  0  0  0  0  0
   -0.3250    1.2492    0.4442 C   0  0  0  0  0  0  0  0  0  0  0  0
   -1.5432   -0.7454    0.0546 N   0  0  0  0  0  0  0  0  0  0  0  0
   -2.6450   -0.2694   -0.6664 C   0  0  0  0  0  0  0  0  0  0  0  0
   -3.7279   -1.1867   -1.1510 C   0  0  0  0  0  0  0  0  0  0  0  0
   -2.7812    0.9285   -0.9396 O   0  0  0  0  0  0  0  0  0  0  0  0
    2.8319   -1.9775    1.9477 H   0  0  0  0  0  0  0  0  0  0  0  0
    3.6005   -0.5166    2.7650 H   0  0  0  0  0  0  0  0  0  0  0  0
    2.1571   -1.3991    3.4989 H   0  0  0  0  0  0  0  0  0  0  0  0
    1.9040    0.8076    1.8182 H   0  0  0  0  0  0  0  0  0  0  0  0
   -1.0296    1.8931   -0.0717 H   0  0  0  0  0  0  0  0  0  0  0  0
    0.5531    1.7520    0.8761 H   0  0  0  0  0  0  0  0  0  0  0  0
   -1.5622   -1.8138    0.2162 H   0  0  0  0  0  0  0  0  0  0  0  0
   -3.3591   -2.2159   -1.2851 H   0  0  0  0  0  0  0  0  0  0  0  0
   -4.1119   -0.8089   -2.1182 H   0  0  0  0  0  0  0  0  0  0  0  0
   -4.5335   -1.1694   -0.4055 H   0  0  0  0  0  0  0  0  0  0  0  0
  1  2  1  0
  1 11  1  0
  1 12  1  0
  1 13  1  0
  2  3  1  0
  2 14  1  0
  3  4  2  0
  3  5  1  0
  5  6  2  3
  5  7  1  0
  6 15  1  0
  6 16  1  0
  7  8  1  0
  7 17  1  0
  8  9  1  0
  8 10  2  0
  9 18  1  0
  9 19  1  0
  9 20  1  0
M  END

> <RosettaParamsInstructions>
M  ROOT 7
M  POLY_N_BB 7
M  POLY_CA_BB 5
M  POLY_C_BB 3
M  POLY_O_BB 4
M  POLY_IGNORE 1 10 9 14 11 12 13 18 19 20
M  POLY_UPPER 2
M  POLY_LOWER 8
M  POLY_CHG 0
M  POLY_PROPERTIES PROTEIN POLYMER ALPHA_AA ALIPHATIC
M  END

$$$$
DHA_new
     RDKit          3D

 20 19  0  0  0  0  0  0  0  0999 V2000
    2.6713   -1.0754    2.5610 C   0  0  0  0  0  0  0  0  0  0  0  0
    1.6928   -0.2367    1.8730 N   0  0  0  0  0  0  0  0  0  0  0  0
    0.5673   -0.8156    1.2973 C   0  0  0  0  0  0  0  0  0  0  0  0
    0.4354   -2.0915    1.3987 O   0  0  0  0  0  0  0  0  0  0  0  0
   -0.4859   -0.0630    0.5778 C   0  0  0  0  0  0  0  0  0  0  0  0
   -0.3584    1.2302    0.4713 C   0  0  0  0  0  0  0  0  0  0  0  0
   -1.5785   -0.7546    0.0371 N   0  0  0  0  0  0  0  0  0  0  0  0
   -2.6467   -0.2312   -0.6592 C   0  0  0  0  0  0  0  0  0  0  0  0
   -3.7407   -1.1592   -1.1675 C   0  0  0  0  0  0  0  0  0  0  0  0
   -2.7955    0.9643   -0.9131 O   0  0  0  0  0  0  0  0  0  0  0  0
    3.5761   -1.1550    1.9281 H   0  0  0  0  0  0  0  0  0  0  0  0
    2.9491   -0.5559    3.4896 H   0  0  0  0  0  0  0  0  0  0  0  0
    2.2577   -2.0856    2.7327 H   0  0  0  0  0  0  0  0  0  0  0  0
    1.9020    0.7643    1.8551 H   0  0  0  0  0  0  0  0  0  0  0  0
    0.5188    1.7088    0.9161 H   0  0  0  0  0  0  0  0  0  0  0  0
   -1.0629    1.8619   -0.0279 H   0  0  0  0  0  0  0  0  0  0  0  0
   -1.5706   -1.8147    0.1899 H   0  0  0  0  0  0  0  0  0  0  0  0
   -4.6962   -0.6315   -1.0508 H   0  0  0  0  0  0  0  0  0  0  0  0
   -3.5215   -1.4224   -2.2072 H   0  0  0  0  0  0  0  0  0  0  0  0
   -3.7198   -2.0892   -0.5609 H   0  0  0  0  0  0  0  0  0  0  0  0
  1  2  1  0
  1 11  1  0
  1 12  1  0
  1 13  1  0
  2  3  1  0
  2 14  1  0
  3  4  2  0
  3  5  1  0
  5  6  2  3
  5  7  1  0
  6 15  1  0
  6 16  1  0
  7  8  1  0
  7 17  1  0
  8  9  1  0
  8 10  2  0
  9 18  1  0
  9 19  1  0
  9 20  1  0
M  END

> <RosettaParamsInstructions>
M  ROOT 7
M  POLY_N_BB 7
M  POLY_CA_BB 5
M  POLY_C_BB 3
M  POLY_O_BB 4
M  POLY_IGNORE 1 10 9 14 11 12 13 18 19 20
M  POLY_UPPER 2
M  POLY_LOWER 8
M  POLY_CHG 0
M  POLY_PROPERTIES PROTEIN POLYMER ALPHA_AA ALIPHATIC
M  END

$$$$
DHA_new
     RDKit          3D

 20 19  0  0  0  0  0  0  0  0999 V2000
    2.6014   -1.0359    2.6550 C   0  0  0  0  0  0  0  0  0  0  0  0
    1.6720   -0.2144    1.8704 N   0  0  0  0  0  0  0  0  0  0  0  0
    0.5405   -0.8371    1.3483 C   0  0  0  0  0  0  0  0  0  0  0  0
    0.3033   -2.0837    1.5365 O   0  0  0  0  0  0  0  0  0  0  0  0
   -0.4280   -0.0576    0.5510 C   0  0  0  0  0  0  0  0  0  0  0  0
   -0.2225    1.2223    0.3346 C   0  0  0  0  0  0  0  0  0  0  0  0
   -1.5579   -0.7586    0.0507 N   0  0  0  0  0  0  0  0  0  0  0  0
   -2.6016   -0.2477   -0.7205 C   0  0  0  0  0  0  0  0  0  0  0  0
   -3.7231   -1.1634   -1.1584 C   0  0  0  0  0  0  0  0  0  0  0  0
   -2.7419    0.9293   -1.1199 O   0  0  0  0  0  0  0  0  0  0  0  0
    3.3200   -1.5564    1.9574 H   0  0  0  0  0  0  0  0  0  0  0  0
    3.1552   -0.4224    3.3683 H   0  0  0  0  0  0  0  0  0  0  0  0
    2.0141   -1.8145    3.1917 H   0  0  0  0  0  0  0  0  0  0  0  0
    1.9162    0.7661    1.7574 H   0  0  0  0  0  0  0  0  0  0  0  0
   -0.9044    1.8215   -0.2402 H   0  0  0  0  0  0  0  0  0  0  0  0
    0.6343    1.7423    0.7171 H   0  0  0  0  0  0  0  0  0  0  0  0
   -1.6075   -1.7893    0.2956 H   0  0  0  0  0  0  0  0  0  0  0  0
   -3.4669   -1.5793   -2.1463 H   0  0  0  0  0  0  0  0  0  0  0  0
   -3.8213   -1.9559   -0.3677 H   0  0  0  0  0  0  0  0  0  0  0  0
   -4.6883   -0.6176   -1.1400 H   0  0  0  0  0  0  0  0  0  0  0  0
  1  2  1  0
  1 11  1  0
  1 12  1  0
  1 13  1  0
  2  3  1  0
  2 14  1  0
  3  4  2  0
  3  5  1  0
  5  6  2  3
  5  7  1  0
  6 15  1  0
  6 16  1  0
  7  8  1  0
  7 17  1  0
  8  9  1  0
  8 10  2  0
  9 18  1  0
  9 19  1  0
  9 20  1  0
M  END

> <RosettaParamsInstructions>
M  ROOT 7
M  POLY_N_BB 7
M  POLY_CA_BB 5
M  POLY_C_BB 3
M  POLY_O_BB 4
M  POLY_IGNORE 1 10 9 14 11 12 13 18 19 20
M  POLY_UPPER 2
M  POLY_LOWER 8
M  POLY_CHG 0
M  POLY_PROPERTIES PROTEIN POLYMER ALPHA_AA ALIPHATIC
M  END

$$$$
DHA_new
     RDKit          3D

 20 19  0  0  0  0  0  0  0  0999 V2000
    2.6971   -1.0401    2.5816 C   0  0  0  0  0  0  0  0  0  0  0  0
    1.6935   -0.2533    1.8672 N   0  0  0  0  0  0  0  0  0  0  0  0
    0.5600   -0.8396    1.2980 C   0  0  0  0  0  0  0  0  0  0  0  0
    0.4266   -2.0889    1.4212 O   0  0  0  0  0  0  0  0  0  0  0  0
   -0.4775   -0.0835    0.5688 C   0  0  0  0  0  0  0  0  0  0  0  0
   -0.3384    1.2100    0.4419 C   0  0  0  0  0  0  0  0  0  0  0  0
   -1.5726   -0.7972    0.0427 N   0  0  0  0  0  0  0  0  0  0  0  0
   -2.6289   -0.2483   -0.6642 C   0  0  0  0  0  0  0  0  0  0  0  0
   -3.7552   -1.1481   -1.1785 C   0  0  0  0  0  0  0  0  0  0  0  0
   -2.7646    0.9480   -0.9364 O   0  0  0  0  0  0  0  0  0  0  0  0
    2.8063   -0.5396    3.5766 H   0  0  0  0  0  0  0  0  0  0  0  0
    2.3094   -2.0828    2.6887 H   0  0  0  0  0  0  0  0  0  0  0  0
    3.6537   -1.0940    2.0338 H   0  0  0  0  0  0  0  0  0  0  0  0
    1.8664    0.7560    1.8059 H   0  0  0  0  0  0  0  0  0  0  0  0
   -1.0200    1.8597   -0.0619 H   0  0  0  0  0  0  0  0  0  0  0  0
    0.5269    1.7366    0.8637 H   0  0  0  0  0  0  0  0  0  0  0  0
   -1.5692   -1.8591    0.2157 H   0  0  0  0  0  0  0  0  0  0  0  0
   -3.4876   -2.1942   -0.9537 H   0  0  0  0  0  0  0  0  0  0  0  0
   -3.8709   -1.0237   -2.2659 H   0  0  0  0  0  0  0  0  0  0  0  0
   -4.6614   -0.8702   -0.6043 H   0  0  0  0  0  0  0  0  0  0  0  0
  1  2  1  0
  1 11  1  0
  1 12  1  0
  1 13  1  0
  2  3  1  0
  2 14  1  0
  3  4  2  0
  3  5  1  0
  5  6  2  3
  5  7  1  0
  6 15  1  0
  6 16  1  0
  7  8  1  0
  7 17  1  0
  8  9  1  0
  8 10  2  0
  9 18  1  0
  9 19  1  0
  9 20  1  0
M  END

> <RosettaParamsInstructions>
M  ROOT 7
M  POLY_N_BB 7
M  POLY_CA_BB 5
M  POLY_C_BB 3
M  POLY_O_BB 4
M  POLY_IGNORE 1 10 9 14 11 12 13 18 19 20
M  POLY_UPPER 2
M  POLY_LOWER 8
M  POLY_CHG 0
M  POLY_PROPERTIES PROTEIN POLYMER ALPHA_AA ALIPHATIC
M  END

$$$$
DHA_new
     RDKit          3D

 20 19  0  0  0  0  0  0  0  0999 V2000
    2.6118   -1.0365    2.6534 C   0  0  0  0  0  0  0  0  0  0  0  0
    1.6608   -0.2459    1.8587 N   0  0  0  0  0  0  0  0  0  0  0  0
    0.5245   -0.8518    1.3500 C   0  0  0  0  0  0  0  0  0  0  0  0
    0.3265   -2.0879    1.5827 O   0  0  0  0  0  0  0  0  0  0  0  0
   -0.4585   -0.1005    0.5473 C   0  0  0  0  0  0  0  0  0  0  0  0
   -0.2127    1.1726    0.3327 C   0  0  0  0  0  0  0  0  0  0  0  0
   -1.5972   -0.7992    0.0636 N   0  0  0  0  0  0  0  0  0  0  0  0
   -2.6179   -0.2416   -0.7066 C   0  0  0  0  0  0  0  0  0  0  0  0
   -3.7657   -1.1354   -1.1401 C   0  0  0  0  0  0  0  0  0  0  0  0
   -2.6788    0.9360   -1.0778 O   0  0  0  0  0  0  0  0  0  0  0  0
    2.1094   -1.9419    3.0061 H   0  0  0  0  0  0  0  0  0  0  0  0
    3.4883   -1.2582    2.0184 H   0  0  0  0  0  0  0  0  0  0  0  0
    2.9276   -0.4053    3.5106 H   0  0  0  0  0  0  0  0  0  0  0  0
    1.9062    0.7342    1.7272 H   0  0  0  0  0  0  0  0  0  0  0  0
    0.6559    1.6771    0.7098 H   0  0  0  0  0  0  0  0  0  0  0  0
   -0.8860    1.8170   -0.2540 H   0  0  0  0  0  0  0  0  0  0  0  0
   -1.6479   -1.8336    0.3272 H   0  0  0  0  0  0  0  0  0  0  0  0
   -4.0164   -0.8429   -2.1630 H   0  0  0  0  0  0  0  0  0  0  0  0
   -3.3621   -2.1667   -1.1927 H   0  0  0  0  0  0  0  0  0  0  0  0
   -4.5745   -1.0416   -0.4128 H   0  0  0  0  0  0  0  0  0  0  0  0
  1  2  1  0
  1 11  1  0
  1 12  1  0
  1 13  1  0
  2  3  1  0
  2 14  1  0
  3  4  2  0
  3  5  1  0
  5  6  2  3
  5  7  1  0
  6 15  1  0
  6 16  1  0
  7  8  1  0
  7 17  1  0
  8  9  1  0
  8 10  2  0
  9 18  1  0
  9 19  1  0
  9 20  1  0
M  END

> <RosettaParamsInstructions>
M  ROOT 7
M  POLY_N_BB 7
M  POLY_CA_BB 5
M  POLY_C_BB 3
M  POLY_O_BB 4
M  POLY_IGNORE 1 10 9 14 11 12 13 18 19 20
M  POLY_UPPER 2
M  POLY_LOWER 8
M  POLY_CHG 0
M  POLY_PROPERTIES PROTEIN POLYMER ALPHA_AA ALIPHATIC
M  END

$$$$
DHA_new
     RDKit          3D

 20 19  0  0  0  0  0  0  0  0999 V2000
    2.7212   -1.0819    2.5387 C   0  0  0  0  0  0  0  0  0  0  0  0
    1.7066   -0.2565    1.8523 N   0  0  0  0  0  0  0  0  0  0  0  0
    0.5714   -0.8307    1.2725 C   0  0  0  0  0  0  0  0  0  0  0  0
    0.4446   -2.0924    1.3582 O   0  0  0  0  0  0  0  0  0  0  0  0
   -0.4794   -0.0636    0.5727 C   0  0  0  0  0  0  0  0  0  0  0  0
   -0.3684    1.2250    0.4746 C   0  0  0  0  0  0  0  0  0  0  0  0
   -1.5530   -0.7670    0.0446 N   0  0  0  0  0  0  0  0  0  0  0  0
   -2.6371   -0.2352   -0.6448 C   0  0  0  0  0  0  0  0  0  0  0  0
   -3.7288   -1.1613   -1.1555 C   0  0  0  0  0  0  0  0  0  0  0  0
   -2.8534    0.9662   -0.9200 O   0  0  0  0  0  0  0  0  0  0  0  0
    2.2359   -2.0326    2.7844 H   0  0  0  0  0  0  0  0  0  0  0  0
    2.9584   -0.5687    3.4781 H   0  0  0  0  0  0  0  0  0  0  0  0
    3.5926   -1.1686    1.8712 H   0  0  0  0  0  0  0  0  0  0  0  0
    1.9083    0.7483    1.8419 H   0  0  0  0  0  0  0  0  0  0  0  0
   -1.1125    1.8132   -0.0267 H   0  0  0  0  0  0  0  0  0  0  0  0
    0.5097    1.7106    0.9179 H   0  0  0  0  0  0  0  0  0  0  0  0
   -1.5578   -1.8298    0.1753 H   0  0  0  0  0  0  0  0  0  0  0  0
   -3.5798   -2.1413   -0.6758 H   0  0  0  0  0  0  0  0  0  0  0  0
   -4.6815   -0.7029   -0.7744 H   0  0  0  0  0  0  0  0  0  0  0  0
   -3.7034   -1.1830   -2.2445 H   0  0  0  0  0  0  0  0  0  0  0  0
  1  2  1  0
  1 11  1  0
  1 12  1  0
  1 13  1  0
  2  3  1  0
  2 14  1  0
  3  4  2  0
  3  5  1  0
  5  6  2  3
  5  7  1  0
  6 15  1  0
  6 16  1  0
  7  8  1  0
  7 17  1  0
  8  9  1  0
  8 10  2  0
  9 18  1  0
  9 19  1  0
  9 20  1  0
M  END

> <RosettaParamsInstructions>
M  ROOT 7
M  POLY_N_BB 7
M  POLY_CA_BB 5
M  POLY_C_BB 3
M  POLY_O_BB 4
M  POLY_IGNORE 1 10 9 14 11 12 13 18 19 20
M  POLY_UPPER 2
M  POLY_LOWER 8
M  POLY_CHG 0
M  POLY_PROPERTIES PROTEIN POLYMER ALPHA_AA ALIPHATIC
M  END

$$$$
DHA_new
     RDKit          3D

 20 19  0  0  0  0  0  0  0  0999 V2000
    2.6672   -1.0677    2.5791 C   0  0  0  0  0  0  0  0  0  0  0  0
    1.6748   -0.2582    1.8573 N   0  0  0  0  0  0  0  0  0  0  0  0
    0.5464   -0.8246    1.2953 C   0  0  0  0  0  0  0  0  0  0  0  0
    0.3800   -2.0789    1.4161 O   0  0  0  0  0  0  0  0  0  0  0  0
   -0.4900   -0.0889    0.5606 C   0  0  0  0  0  0  0  0  0  0  0  0
   -0.3254    1.2072    0.4315 C   0  0  0  0  0  0  0  0  0  0  0  0
   -1.5888   -0.7984    0.0409 N   0  0  0  0  0  0  0  0  0  0  0  0
   -2.6385   -0.2345   -0.6717 C   0  0  0  0  0  0  0  0  0  0  0  0
   -3.7354   -1.1903   -1.1475 C   0  0  0  0  0  0  0  0  0  0  0  0
   -2.7712    0.9867   -0.9618 O   0  0  0  0  0  0  0  0  0  0  0  0
    2.9323   -0.5239    3.5176 H   0  0  0  0  0  0  0  0  0  0  0  0
    2.2706   -2.0639    2.8300 H   0  0  0  0  0  0  0  0  0  0  0  0
    3.5903   -1.1248    1.9744 H   0  0  0  0  0  0  0  0  0  0  0  0
    1.8862    0.7428    1.8069 H   0  0  0  0  0  0  0  0  0  0  0  0
    0.5387    1.7410    0.8445 H   0  0  0  0  0  0  0  0  0  0  0  0
   -1.0109    1.8527   -0.0820 H   0  0  0  0  0  0  0  0  0  0  0  0
   -1.6209   -1.8475    0.2046 H   0  0  0  0  0  0  0  0  0  0  0  0
   -4.5492   -1.0776   -0.3966 H   0  0  0  0  0  0  0  0  0  0  0  0
   -3.3371   -2.2023   -1.2154 H   0  0  0  0  0  0  0  0  0  0  0  0
   -4.0255   -0.8012   -2.1430 H   0  0  0  0  0  0  0  0  0  0  0  0
  1  2  1  0
  1 11  1  0
  1 12  1  0
  1 13  1  0
  2  3  1  0
  2 14  1  0
  3  4  2  0
  3  5  1  0
  5  6  2  3
  5  7  1  0
  6 15  1  0
  6 16  1  0
  7  8  1  0
  7 17  1  0
  8  9  1  0
  8 10  2  0
  9 18  1  0
  9 19  1  0
  9 20  1  0
M  END

> <RosettaParamsInstructions>
M  ROOT 7
M  POLY_N_BB 7
M  POLY_CA_BB 5
M  POLY_C_BB 3
M  POLY_O_BB 4
M  POLY_IGNORE 1 10 9 14 11 12 13 18 19 20
M  POLY_UPPER 2
M  POLY_LOWER 8
M  POLY_CHG 0
M  POLY_PROPERTIES PROTEIN POLYMER ALPHA_AA ALIPHATIC
M  END

$$$$
DHA_new
     RDKit          3D

 20 19  0  0  0  0  0  0  0  0999 V2000
    2.7150   -1.0711    2.5001 C   0  0  0  0  0  0  0  0  0  0  0  0
    1.6913   -0.2207    1.9057 N   0  0  0  0  0  0  0  0  0  0  0  0
    0.5954   -0.7980    1.2672 C   0  0  0  0  0  0  0  0  0  0  0  0
    0.5037   -2.0669    1.2120 O   0  0  0  0  0  0  0  0  0  0  0  0
   -0.4912   -0.0226    0.6361 C   0  0  0  0  0  0  0  0  0  0  0  0
   -0.4405    1.2874    0.6675 C   0  0  0  0  0  0  0  0  0  0  0  0
   -1.5454   -0.7349    0.0217 N   0  0  0  0  0  0  0  0  0  0  0  0
   -2.6705   -0.2384   -0.6324 C   0  0  0  0  0  0  0  0  0  0  0  0
   -3.6887   -1.1788   -1.2262 C   0  0  0  0  0  0  0  0  0  0  0  0
   -2.9128    0.9644   -0.7716 O   0  0  0  0  0  0  0  0  0  0  0  0
    2.3370   -1.5096    3.4305 H   0  0  0  0  0  0  0  0  0  0  0  0
    3.6620   -0.5293    2.6531 H   0  0  0  0  0  0  0  0  0  0  0  0
    2.9102   -1.8891    1.7754 H   0  0  0  0  0  0  0  0  0  0  0  0
    1.8344    0.7844    1.9904 H   0  0  0  0  0  0  0  0  0  0  0  0
   -1.2202    1.8620    0.2147 H   0  0  0  0  0  0  0  0  0  0  0  0
    0.4037    1.7879    1.1594 H   0  0  0  0  0  0  0  0  0  0  0  0
   -1.4878   -1.8165    0.0536 H   0  0  0  0  0  0  0  0  0  0  0  0
   -4.3525   -1.5258   -0.4196 H   0  0  0  0  0  0  0  0  0  0  0  0
   -4.2892   -0.6996   -2.0024 H   0  0  0  0  0  0  0  0  0  0  0  0
   -3.1602   -2.0371   -1.6944 H   0  0  0  0  0  0  0  0  0  0  0  0
  1  2  1  0
  1 11  1  0
  1 12  1  0
  1 13  1  0
  2  3  1  0
  2 14  1  0
  3  4  2  0
  3  5  1  0
  5  6  2  3
  5  7  1  0
  6 15  1  0
  6 16  1  0
  7  8  1  0
  7 17  1  0
  8  9  1  0
  8 10  2  0
  9 18  1  0
  9 19  1  0
  9 20  1  0
M  END

> <RosettaParamsInstructions>
M  ROOT 7
M  POLY_N_BB 7
M  POLY_CA_BB 5
M  POLY_C_BB 3
M  POLY_O_BB 4
M  POLY_IGNORE 1 10 9 14 11 12 13 18 19 20
M  POLY_UPPER 2
M  POLY_LOWER 8
M  POLY_CHG 0
M  POLY_PROPERTIES PROTEIN POLYMER ALPHA_AA ALIPHATIC
M  END

$$$$
DHA_new
     RDKit          3D

 20 19  0  0  0  0  0  0  0  0999 V2000
    2.6298   -1.0234    2.6785 C   0  0  0  0  0  0  0  0  0  0  0  0
    1.6814   -0.2318    1.8618 N   0  0  0  0  0  0  0  0  0  0  0  0
    0.5143   -0.8241    1.3441 C   0  0  0  0  0  0  0  0  0  0  0  0
    0.2812   -2.0365    1.5811 O   0  0  0  0  0  0  0  0  0  0  0  0
   -0.4259   -0.0719    0.5446 C   0  0  0  0  0  0  0  0  0  0  0  0
   -0.1988    1.1806    0.2915 C   0  0  0  0  0  0  0  0  0  0  0  0
   -1.5748   -0.7518    0.0654 N   0  0  0  0  0  0  0  0  0  0  0  0
   -2.6215   -0.2645   -0.7156 C   0  0  0  0  0  0  0  0  0  0  0  0
   -3.7438   -1.1443   -1.1167 C   0  0  0  0  0  0  0  0  0  0  0  0
   -2.6646    0.9084   -1.1064 O   0  0  0  0  0  0  0  0  0  0  0  0
    3.6413   -0.8209    2.2834 H   0  0  0  0  0  0  0  0  0  0  0  0
    2.3828   -2.0773    2.4956 H   0  0  0  0  0  0  0  0  0  0  0  0
    2.5217   -0.7713    3.7535 H   0  0  0  0  0  0  0  0  0  0  0  0
    1.9942    0.7535    1.7437 H   0  0  0  0  0  0  0  0  0  0  0  0
    0.6924    1.6986    0.6663 H   0  0  0  0  0  0  0  0  0  0  0  0
   -0.8471    1.7902   -0.2882 H   0  0  0  0  0  0  0  0  0  0  0  0
   -1.6876   -1.8043    0.3250 H   0  0  0  0  0  0  0  0  0  0  0  0
   -3.5966   -1.6064   -2.1050 H   0  0  0  0  0  0  0  0  0  0  0  0
   -3.8827   -1.9871   -0.3904 H   0  0  0  0  0  0  0  0  0  0  0  0
   -4.7021   -0.5679   -1.1714 H   0  0  0  0  0  0  0  0  0  0  0  0
  1  2  1  0
  1 11  1  0
  1 12  1  0
  1 13  1  0
  2  3  1  0
  2 14  1  0
  3  4  2  0
  3  5  1  0
  5  6  2  3
  5  7  1  0
  6 15  1  0
  6 16  1  0
  7  8  1  0
  7 17  1  0
  8  9  1  0
  8 10  2  0
  9 18  1  0
  9 19  1  0
  9 20  1  0
M  END

> <RosettaParamsInstructions>
M  ROOT 7
M  POLY_N_BB 7
M  POLY_CA_BB 5
M  POLY_C_BB 3
M  POLY_O_BB 4
M  POLY_IGNORE 1 10 9 14 11 12 13 18 19 20
M  POLY_UPPER 2
M  POLY_LOWER 8
M  POLY_CHG 0
M  POLY_PROPERTIES PROTEIN POLYMER ALPHA_AA ALIPHATIC
M  END

$$$$
DHA_new
     RDKit          3D

 20 19  0  0  0  0  0  0  0  0999 V2000
    2.6727   -1.0689    2.6114 C   0  0  0  0  0  0  0  0  0  0  0  0
    1.6928   -0.2588    1.8926 N   0  0  0  0  0  0  0  0  0  0  0  0
    0.5438   -0.8345    1.3051 C   0  0  0  0  0  0  0  0  0  0  0  0
    0.3664   -2.0922    1.4099 O   0  0  0  0  0  0  0  0  0  0  0  0
   -0.4614   -0.0757    0.5797 C   0  0  0  0  0  0  0  0  0  0  0  0
   -0.3172    1.2142    0.4496 C   0  0  0  0  0  0  0  0  0  0  0  0
   -1.5555   -0.7618    0.0436 N   0  0  0  0  0  0  0  0  0  0  0  0
   -2.6308   -0.2194   -0.6869 C   0  0  0  0  0  0  0  0  0  0  0  0
   -3.7248   -1.1469   -1.1825 C   0  0  0  0  0  0  0  0  0  0  0  0
   -2.8105    0.9732   -0.9935 O   0  0  0  0  0  0  0  0  0  0  0  0
    2.4698   -0.9594    3.6816 H   0  0  0  0  0  0  0  0  0  0  0  0
    2.6527   -2.1175    2.2482 H   0  0  0  0  0  0  0  0  0  0  0  0
    3.6785   -0.6642    2.3275 H   0  0  0  0  0  0  0  0  0  0  0  0
    1.8543    0.7558    1.8190 H   0  0  0  0  0  0  0  0  0  0  0  0
   -1.0183    1.8500   -0.0741 H   0  0  0  0  0  0  0  0  0  0  0  0
    0.5362    1.7525    0.8676 H   0  0  0  0  0  0  0  0  0  0  0  0
   -1.6077   -1.8299    0.1912 H   0  0  0  0  0  0  0  0  0  0  0  0
   -3.5151   -1.4945   -2.1917 H   0  0  0  0  0  0  0  0  0  0  0  0
   -4.7033   -0.6504   -1.0541 H   0  0  0  0  0  0  0  0  0  0  0  0
   -3.7289   -2.0239   -0.5032 H   0  0  0  0  0  0  0  0  0  0  0  0
  1  2  1  0
  1 11  1  0
  1 12  1  0
  1 13  1  0
  2  3  1  0
  2 14  1  0
  3  4  2  0
  3  5  1  0
  5  6  2  3
  5  7  1  0
  6 15  1  0
  6 16  1  0
  7  8  1  0
  7 17  1  0
  8  9  1  0
  8 10  2  0
  9 18  1  0
  9 19  1  0
  9 20  1  0
M  END

> <RosettaParamsInstructions>
M  ROOT 7
M  POLY_N_BB 7
M  POLY_CA_BB 5
M  POLY_C_BB 3
M  POLY_O_BB 4
M  POLY_IGNORE 1 10 9 14 11 12 13 18 19 20
M  POLY_UPPER 2
M  POLY_LOWER 8
M  POLY_CHG 0
M  POLY_PROPERTIES PROTEIN POLYMER ALPHA_AA ALIPHATIC
M  END

$$$$
DHA_new
     RDKit          3D

 20 19  0  0  0  0  0  0  0  0999 V2000
    2.6707   -1.0727    2.5663 C   0  0  0  0  0  0  0  0  0  0  0  0
    1.6988   -0.2318    1.8589 N   0  0  0  0  0  0  0  0  0  0  0  0
    0.5680   -0.8314    1.3060 C   0  0  0  0  0  0  0  0  0  0  0  0
    0.4018   -2.0930    1.4256 O   0  0  0  0  0  0  0  0  0  0  0  0
   -0.4345   -0.0619    0.5932 C   0  0  0  0  0  0  0  0  0  0  0  0
   -0.2673    1.2292    0.4691 C   0  0  0  0  0  0  0  0  0  0  0  0
   -1.5527   -0.7513    0.0629 N   0  0  0  0  0  0  0  0  0  0  0  0
   -2.6420   -0.2570   -0.6532 C   0  0  0  0  0  0  0  0  0  0  0  0
   -3.7535   -1.1411   -1.1462 C   0  0  0  0  0  0  0  0  0  0  0  0
   -2.8067    0.9495   -0.9551 O   0  0  0  0  0  0  0  0  0  0  0  0
    2.6212   -2.0695    2.1113 H   0  0  0  0  0  0  0  0  0  0  0  0
    3.6463   -0.5950    2.4575 H   0  0  0  0  0  0  0  0  0  0  0  0
    2.3122   -1.0914    3.6304 H   0  0  0  0  0  0  0  0  0  0  0  0
    1.8745    0.7711    1.7897 H   0  0  0  0  0  0  0  0  0  0  0  0
    0.5680    1.7425    0.8655 H   0  0  0  0  0  0  0  0  0  0  0  0
   -1.0060    1.8195   -0.0601 H   0  0  0  0  0  0  0  0  0  0  0  0
   -1.5684   -1.8166    0.2361 H   0  0  0  0  0  0  0  0  0  0  0  0
   -3.9009   -0.9042   -2.2077 H   0  0  0  0  0  0  0  0  0  0  0  0
   -4.6497   -1.0571   -0.5342 H   0  0  0  0  0  0  0  0  0  0  0  0
   -3.3863   -2.1900   -1.0751 H   0  0  0  0  0  0  0  0  0  0  0  0
  1  2  1  0
  1 11  1  0
  1 12  1  0
  1 13  1  0
  2  3  1  0
  2 14  1  0
  3  4  2  0
  3  5  1  0
  5  6  2  3
  5  7  1  0
  6 15  1  0
  6 16  1  0
  7  8  1  0
  7 17  1  0
  8  9  1  0
  8 10  2  0
  9 18  1  0
  9 19  1  0
  9 20  1  0
M  END

> <RosettaParamsInstructions>
M  ROOT 7
M  POLY_N_BB 7
M  POLY_CA_BB 5
M  POLY_C_BB 3
M  POLY_O_BB 4
M  POLY_IGNORE 1 10 9 14 11 12 13 18 19 20
M  POLY_UPPER 2
M  POLY_LOWER 8
M  POLY_CHG 0
M  POLY_PROPERTIES PROTEIN POLYMER ALPHA_AA ALIPHATIC
M  END

$$$$
DHA_new
     RDKit          3D

 20 19  0  0  0  0  0  0  0  0999 V2000
    2.6019   -1.0449    2.6625 C   0  0  0  0  0  0  0  0  0  0  0  0
    1.7077   -0.2297    1.8193 N   0  0  0  0  0  0  0  0  0  0  0  0
    0.5350   -0.7898    1.3508 C   0  0  0  0  0  0  0  0  0  0  0  0
    0.2632   -2.0005    1.6651 O   0  0  0  0  0  0  0  0  0  0  0  0
   -0.4171   -0.0710    0.5114 C   0  0  0  0  0  0  0  0  0  0  0  0
   -0.1687    1.1758    0.1692 C   0  0  0  0  0  0  0  0  0  0  0  0
   -1.5851   -0.7652    0.0981 N   0  0  0  0  0  0  0  0  0  0  0  0
   -2.6089   -0.2790   -0.6924 C   0  0  0  0  0  0  0  0  0  0  0  0
   -3.7922   -1.1408   -1.0490 C   0  0  0  0  0  0  0  0  0  0  0  0
   -2.6346    0.8693   -1.1567 O   0  0  0  0  0  0  0  0  0  0  0  0
    3.1955   -1.7416    2.0374 H   0  0  0  0  0  0  0  0  0  0  0  0
    2.0219   -1.6280    3.4006 H   0  0  0  0  0  0  0  0  0  0  0  0
    3.2973   -0.3841    3.2195 H   0  0  0  0  0  0  0  0  0  0  0  0
    1.9974    0.7342    1.6121 H   0  0  0  0  0  0  0  0  0  0  0  0
   -0.8048    1.8040   -0.4495 H   0  0  0  0  0  0  0  0  0  0  0  0
    0.7488    1.6355    0.5273 H   0  0  0  0  0  0  0  0  0  0  0  0
   -1.6884   -1.7769    0.4334 H   0  0  0  0  0  0  0  0  0  0  0  0
   -4.2040   -0.8707   -2.0407 H   0  0  0  0  0  0  0  0  0  0  0  0
   -3.4750   -2.2003   -1.0645 H   0  0  0  0  0  0  0  0  0  0  0  0
   -4.5966   -0.9485   -0.3131 H   0  0  0  0  0  0  0  0  0  0  0  0
  1  2  1  0
  1 11  1  0
  1 12  1  0
  1 13  1  0
  2  3  1  0
  2 14  1  0
  3  4  2  0
  3  5  1  0
  5  6  2  3
  5  7  1  0
  6 15  1  0
  6 16  1  0
  7  8  1  0
  7 17  1  0
  8  9  1  0
  8 10  2  0
  9 18  1  0
  9 19  1  0
  9 20  1  0
M  END

> <RosettaParamsInstructions>
M  ROOT 7
M  POLY_N_BB 7
M  POLY_CA_BB 5
M  POLY_C_BB 3
M  POLY_O_BB 4
M  POLY_IGNORE 1 10 9 14 11 12 13 18 19 20
M  POLY_UPPER 2
M  POLY_LOWER 8
M  POLY_CHG 0
M  POLY_PROPERTIES PROTEIN POLYMER ALPHA_AA ALIPHATIC
M  END

$$$$
DHA_new
     RDKit          3D

 20 19  0  0  0  0  0  0  0  0999 V2000
    2.6769   -1.0488    2.5815 C   0  0  0  0  0  0  0  0  0  0  0  0
    1.6561   -0.2288    1.9056 N   0  0  0  0  0  0  0  0  0  0  0  0
    0.5679   -0.8265    1.2964 C   0  0  0  0  0  0  0  0  0  0  0  0
    0.4575   -2.0923    1.3258 O   0  0  0  0  0  0  0  0  0  0  0  0
   -0.4843   -0.0623    0.6059 C   0  0  0  0  0  0  0  0  0  0  0  0
   -0.3944    1.2253    0.5624 C   0  0  0  0  0  0  0  0  0  0  0  0
   -1.5707   -0.7668    0.0060 N   0  0  0  0  0  0  0  0  0  0  0  0
   -2.6463   -0.2043   -0.6833 C   0  0  0  0  0  0  0  0  0  0  0  0
   -3.6628   -1.1937   -1.2196 C   0  0  0  0  0  0  0  0  0  0  0  0
   -2.8130    1.0103   -0.8756 O   0  0  0  0  0  0  0  0  0  0  0  0
    2.3667   -1.2006    3.6210 H   0  0  0  0  0  0  0  0  0  0  0  0
    3.6825   -0.6024    2.4681 H   0  0  0  0  0  0  0  0  0  0  0  0
    2.6704   -2.0286    2.0750 H   0  0  0  0  0  0  0  0  0  0  0  0
    1.8047    0.7820    1.9185 H   0  0  0  0  0  0  0  0  0  0  0  0
    0.4546    1.7279    1.0348 H   0  0  0  0  0  0  0  0  0  0  0  0
   -1.1243    1.8643    0.0752 H   0  0  0  0  0  0  0  0  0  0  0  0
   -1.5076   -1.8227    0.1239 H   0  0  0  0  0  0  0  0  0  0  0  0
   -3.1054   -2.0571   -1.6081 H   0  0  0  0  0  0  0  0  0  0  0  0
   -4.2285   -0.6750   -2.0304 H   0  0  0  0  0  0  0  0  0  0  0  0
   -4.4065   -1.4521   -0.4421 H   0  0  0  0  0  0  0  0  0  0  0  0
  1  2  1  0
  1 11  1  0
  1 12  1  0
  1 13  1  0
  2  3  1  0
  2 14  1  0
  3  4  2  0
  3  5  1  0
  5  6  2  3
  5  7  1  0
  6 15  1  0
  6 16  1  0
  7  8  1  0
  7 17  1  0
  8  9  1  0
  8 10  2  0
  9 18  1  0
  9 19  1  0
  9 20  1  0
M  END

> <RosettaParamsInstructions>
M  ROOT 7
M  POLY_N_BB 7
M  POLY_CA_BB 5
M  POLY_C_BB 3
M  POLY_O_BB 4
M  POLY_IGNORE 1 10 9 14 11 12 13 18 19 20
M  POLY_UPPER 2
M  POLY_LOWER 8
M  POLY_CHG 0
M  POLY_PROPERTIES PROTEIN POLYMER ALPHA_AA ALIPHATIC
M  END

$$$$
DHA_new
     RDKit          3D

 20 19  0  0  0  0  0  0  0  0999 V2000
    2.6625   -1.0410    2.5515 C   0  0  0  0  0  0  0  0  0  0  0  0
    1.6396   -0.2328    1.8872 N   0  0  0  0  0  0  0  0  0  0  0  0
    0.5591   -0.8503    1.2833 C   0  0  0  0  0  0  0  0  0  0  0  0
    0.4613   -2.1290    1.3099 O   0  0  0  0  0  0  0  0  0  0  0  0
   -0.4965   -0.0651    0.6010 C   0  0  0  0  0  0  0  0  0  0  0  0
   -0.3943    1.2388    0.5754 C   0  0  0  0  0  0  0  0  0  0  0  0
   -1.5548   -0.7902    0.0175 N   0  0  0  0  0  0  0  0  0  0  0  0
   -2.6286   -0.2185   -0.6615 C   0  0  0  0  0  0  0  0  0  0  0  0
   -3.6841   -1.1556   -1.2295 C   0  0  0  0  0  0  0  0  0  0  0  0
   -2.8398    0.9823   -0.8674 O   0  0  0  0  0  0  0  0  0  0  0  0
    3.1597   -0.4680    3.3679 H   0  0  0  0  0  0  0  0  0  0  0  0
    3.4377   -1.3814    1.8313 H   0  0  0  0  0  0  0  0  0  0  0  0
    2.2321   -1.9412    3.0165 H   0  0  0  0  0  0  0  0  0  0  0  0
    1.7859    0.7761    1.9075 H   0  0  0  0  0  0  0  0  0  0  0  0
    0.4389    1.7782    1.0369 H   0  0  0  0  0  0  0  0  0  0  0  0
   -1.1332    1.8697    0.0925 H   0  0  0  0  0  0  0  0  0  0  0  0
   -1.5291   -1.8555    0.1037 H   0  0  0  0  0  0  0  0  0  0  0  0
   -3.4259   -1.4206   -2.2759 H   0  0  0  0  0  0  0  0  0  0  0  0
   -4.6536   -0.6581   -1.1674 H   0  0  0  0  0  0  0  0  0  0  0  0
   -3.6438   -2.0899   -0.6398 H   0  0  0  0  0  0  0  0  0  0  0  0
  1  2  1  0
  1 11  1  0
  1 12  1  0
  1 13  1  0
  2  3  1  0
  2 14  1  0
  3  4  2  0
  3  5  1  0
  5  6  2  3
  5  7  1  0
  6 15  1  0
  6 16  1  0
  7  8  1  0
  7 17  1  0
  8  9  1  0
  8 10  2  0
  9 18  1  0
  9 19  1  0
  9 20  1  0
M  END

> <RosettaParamsInstructions>
M  ROOT 7
M  POLY_N_BB 7
M  POLY_CA_BB 5
M  POLY_C_BB 3
M  POLY_O_BB 4
M  POLY_IGNORE 1 10 9 14 11 12 13 18 19 20
M  POLY_UPPER 2
M  POLY_LOWER 8
M  POLY_CHG 0
M  POLY_PROPERTIES PROTEIN POLYMER ALPHA_AA ALIPHATIC
M  END

$$$$
DHA_new
     RDKit          3D

 20 19  0  0  0  0  0  0  0  0999 V2000
    2.6838   -1.0837    2.5068 C   0  0  0  0  0  0  0  0  0  0  0  0
    1.6710   -0.2250    1.8582 N   0  0  0  0  0  0  0  0  0  0  0  0
    0.5580   -0.8365    1.2657 C   0  0  0  0  0  0  0  0  0  0  0  0
    0.4382   -2.1058    1.2950 O   0  0  0  0  0  0  0  0  0  0  0  0
   -0.4798   -0.0582    0.6090 C   0  0  0  0  0  0  0  0  0  0  0  0
   -0.3831    1.2499    0.5634 C   0  0  0  0  0  0  0  0  0  0  0  0
   -1.5549   -0.7767    0.0466 N   0  0  0  0  0  0  0  0  0  0  0  0
   -2.6376   -0.2242   -0.6185 C   0  0  0  0  0  0  0  0  0  0  0  0
   -3.7058   -1.1667   -1.1596 C   0  0  0  0  0  0  0  0  0  0  0  0
   -2.8356    0.9887   -0.8261 O   0  0  0  0  0  0  0  0  0  0  0  0
    2.4652   -1.1505    3.5876 H   0  0  0  0  0  0  0  0  0  0  0  0
    2.6672   -2.0677    1.9939 H   0  0  0  0  0  0  0  0  0  0  0  0
    3.6724   -0.6310    2.3010 H   0  0  0  0  0  0  0  0  0  0  0  0
    1.8477    0.7832    1.8817 H   0  0  0  0  0  0  0  0  0  0  0  0
    0.4698    1.7587    1.0143 H   0  0  0  0  0  0  0  0  0  0  0  0
   -1.1041    1.9065    0.0982 H   0  0  0  0  0  0  0  0  0  0  0  0
   -1.5371   -1.8329    0.1385 H   0  0  0  0  0  0  0  0  0  0  0  0
   -3.8269   -1.9520   -0.3895 H   0  0  0  0  0  0  0  0  0  0  0  0
   -4.6546   -0.6364   -1.3046 H   0  0  0  0  0  0  0  0  0  0  0  0
   -3.3604   -1.5917   -2.1208 H   0  0  0  0  0  0  0  0  0  0  0  0
  1  2  1  0
  1 11  1  0
  1 12  1  0
  1 13  1  0
  2  3  1  0
  2 14  1  0
  3  4  2  0
  3  5  1  0
  5  6  2  3
  5  7  1  0
  6 15  1  0
  6 16  1  0
  7  8  1  0
  7 17  1  0
  8  9  1  0
  8 10  2  0
  9 18  1  0
  9 19  1  0
  9 20  1  0
M  END

> <RosettaParamsInstructions>
M  ROOT 7
M  POLY_N_BB 7
M  POLY_CA_BB 5
M  POLY_C_BB 3
M  POLY_O_BB 4
M  POLY_IGNORE 1 10 9 14 11 12 13 18 19 20
M  POLY_UPPER 2
M  POLY_LOWER 8
M  POLY_CHG 0
M  POLY_PROPERTIES PROTEIN POLYMER ALPHA_AA ALIPHATIC
M  END

$$$$
DHA_new
     RDKit          3D

 20 19  0  0  0  0  0  0  0  0999 V2000
    2.6774   -1.0446    2.5948 C   0  0  0  0  0  0  0  0  0  0  0  0
    1.6992   -0.2284    1.8822 N   0  0  0  0  0  0  0  0  0  0  0  0
    0.5576   -0.8184    1.3085 C   0  0  0  0  0  0  0  0  0  0  0  0
    0.3810   -2.0661    1.4132 O   0  0  0  0  0  0  0  0  0  0  0  0
   -0.4656   -0.0518    0.5777 C   0  0  0  0  0  0  0  0  0  0  0  0
   -0.3354    1.2403    0.4382 C   0  0  0  0  0  0  0  0  0  0  0  0
   -1.5541   -0.7650    0.0559 N   0  0  0  0  0  0  0  0  0  0  0  0
   -2.6331   -0.2340   -0.6684 C   0  0  0  0  0  0  0  0  0  0  0  0
   -3.7146   -1.1743   -1.1480 C   0  0  0  0  0  0  0  0  0  0  0  0
   -2.7799    0.9717   -0.9565 O   0  0  0  0  0  0  0  0  0  0  0  0
    3.6812   -0.6490    2.3781 H   0  0  0  0  0  0  0  0  0  0  0  0
    2.4536   -1.1182    3.6644 H   0  0  0  0  0  0  0  0  0  0  0  0
    2.5771   -2.0887    2.1751 H   0  0  0  0  0  0  0  0  0  0  0  0
    1.8974    0.7736    1.8314 H   0  0  0  0  0  0  0  0  0  0  0  0
   -1.0428    1.8300   -0.0771 H   0  0  0  0  0  0  0  0  0  0  0  0
    0.5302    1.7847    0.8569 H   0  0  0  0  0  0  0  0  0  0  0  0
   -1.5988   -1.8307    0.2079 H   0  0  0  0  0  0  0  0  0  0  0  0
   -3.5166   -1.4764   -2.2042 H   0  0  0  0  0  0  0  0  0  0  0  0
   -4.6651   -0.6421   -1.1029 H   0  0  0  0  0  0  0  0  0  0  0  0
   -3.7551   -2.0647   -0.4866 H   0  0  0  0  0  0  0  0  0  0  0  0
  1  2  1  0
  1 11  1  0
  1 12  1  0
  1 13  1  0
  2  3  1  0
  2 14  1  0
  3  4  2  0
  3  5  1  0
  5  6  2  3
  5  7  1  0
  6 15  1  0
  6 16  1  0
  7  8  1  0
  7 17  1  0
  8  9  1  0
  8 10  2  0
  9 18  1  0
  9 19  1  0
  9 20  1  0
M  END

> <RosettaParamsInstructions>
M  ROOT 7
M  POLY_N_BB 7
M  POLY_CA_BB 5
M  POLY_C_BB 3
M  POLY_O_BB 4
M  POLY_IGNORE 1 10 9 14 11 12 13 18 19 20
M  POLY_UPPER 2
M  POLY_LOWER 8
M  POLY_CHG 0
M  POLY_PROPERTIES PROTEIN POLYMER ALPHA_AA ALIPHATIC
M  END

$$$$
DHA_new
     RDKit          3D

 20 19  0  0  0  0  0  0  0  0999 V2000
    2.6341   -1.0803    2.5374 C   0  0  0  0  0  0  0  0  0  0  0  0
    1.6507   -0.2017    1.8826 N   0  0  0  0  0  0  0  0  0  0  0  0
    0.5477   -0.8150    1.2776 C   0  0  0  0  0  0  0  0  0  0  0  0
    0.4229   -2.0595    1.3044 O   0  0  0  0  0  0  0  0  0  0  0  0
   -0.4763   -0.0253    0.6059 C   0  0  0  0  0  0  0  0  0  0  0  0
   -0.3744    1.2960    0.5593 C   0  0  0  0  0  0  0  0  0  0  0  0
   -1.5586   -0.7347    0.0211 N   0  0  0  0  0  0  0  0  0  0  0  0
   -2.6605   -0.2461   -0.6724 C   0  0  0  0  0  0  0  0  0  0  0  0
   -3.6732   -1.1993   -1.1961 C   0  0  0  0  0  0  0  0  0  0  0  0
   -2.8419    0.9623   -0.8779 O   0  0  0  0  0  0  0  0  0  0  0  0
    2.3195   -1.2331    3.6002 H   0  0  0  0  0  0  0  0  0  0  0  0
    3.6338   -0.6095    2.5755 H   0  0  0  0  0  0  0  0  0  0  0  0
    2.7092   -2.0564    2.0125 H   0  0  0  0  0  0  0  0  0  0  0  0
    1.8765    0.8065    1.9349 H   0  0  0  0  0  0  0  0  0  0  0  0
   -1.1082    1.8910    0.0757 H   0  0  0  0  0  0  0  0  0  0  0  0
    0.4821    1.7727    1.0290 H   0  0  0  0  0  0  0  0  0  0  0  0
   -1.5137   -1.7977    0.1339 H   0  0  0  0  0  0  0  0  0  0  0  0
   -4.4767   -1.4042   -0.4615 H   0  0  0  0  0  0  0  0  0  0  0  0
   -3.1333   -2.1335   -1.4528 H   0  0  0  0  0  0  0  0  0  0  0  0
   -4.0663   -0.7842   -2.1484 H   0  0  0  0  0  0  0  0  0  0  0  0
  1  2  1  0
  1 11  1  0
  1 12  1  0
  1 13  1  0
  2  3  1  0
  2 14  1  0
  3  4  2  0
  3  5  1  0
  5  6  2  3
  5  7  1  0
  6 15  1  0
  6 16  1  0
  7  8  1  0
  7 17  1  0
  8  9  1  0
  8 10  2  0
  9 18  1  0
  9 19  1  0
  9 20  1  0
M  END

> <RosettaParamsInstructions>
M  ROOT 7
M  POLY_N_BB 7
M  POLY_CA_BB 5
M  POLY_C_BB 3
M  POLY_O_BB 4
M  POLY_IGNORE 1 10 9 14 11 12 13 18 19 20
M  POLY_UPPER 2
M  POLY_LOWER 8
M  POLY_CHG 0
M  POLY_PROPERTIES PROTEIN POLYMER ALPHA_AA ALIPHATIC
M  END

$$$$
DHA_new
     RDKit          3D

 20 19  0  0  0  0  0  0  0  0999 V2000
    2.7213   -1.0970    2.5102 C   0  0  0  0  0  0  0  0  0  0  0  0
    1.7075   -0.2446    1.8691 N   0  0  0  0  0  0  0  0  0  0  0  0
    0.5796   -0.8164    1.2632 C   0  0  0  0  0  0  0  0  0  0  0  0
    0.4833   -2.0931    1.2983 O   0  0  0  0  0  0  0  0  0  0  0  0
   -0.4778   -0.0461    0.6029 C   0  0  0  0  0  0  0  0  0  0  0  0
   -0.4057    1.2549    0.5523 C   0  0  0  0  0  0  0  0  0  0  0  0
   -1.5643   -0.7461    0.0298 N   0  0  0  0  0  0  0  0  0  0  0  0
   -2.6732   -0.2448   -0.6409 C   0  0  0  0  0  0  0  0  0  0  0  0
   -3.7396   -1.1498   -1.1881 C   0  0  0  0  0  0  0  0  0  0  0  0
   -2.8577    0.9690   -0.8323 O   0  0  0  0  0  0  0  0  0  0  0  0
    2.8239   -0.7940    3.5757 H   0  0  0  0  0  0  0  0  0  0  0  0
    2.4161   -2.1488    2.4350 H   0  0  0  0  0  0  0  0  0  0  0  0
    3.6879   -0.8862    2.0032 H   0  0  0  0  0  0  0  0  0  0  0  0
    1.9299    0.7712    1.9249 H   0  0  0  0  0  0  0  0  0  0  0  0
    0.4817    1.7269    1.0275 H   0  0  0  0  0  0  0  0  0  0  0  0
   -1.1325    1.9133    0.0894 H   0  0  0  0  0  0  0  0  0  0  0  0
   -1.5452   -1.8258    0.1170 H   0  0  0  0  0  0  0  0  0  0  0  0
   -4.5137   -1.2594   -0.3957 H   0  0  0  0  0  0  0  0  0  0  0  0
   -4.1804   -0.7685   -2.1095 H   0  0  0  0  0  0  0  0  0  0  0  0
   -3.3475   -2.1669   -1.3911 H   0  0  0  0  0  0  0  0  0  0  0  0
  1  2  1  0
  1 11  1  0
  1 12  1  0
  1 13  1  0
  2  3  1  0
  2 14  1  0
  3  4  2  0
  3  5  1  0
  5  6  2  3
  5  7  1  0
  6 15  1  0
  6 16  1  0
  7  8  1  0
  7 17  1  0
  8  9  1  0
  8 10  2  0
  9 18  1  0
  9 19  1  0
  9 20  1  0
M  END

> <RosettaParamsInstructions>
M  ROOT 7
M  POLY_N_BB 7
M  POLY_CA_BB 5
M  POLY_C_BB 3
M  POLY_O_BB 4
M  POLY_IGNORE 1 10 9 14 11 12 13 18 19 20
M  POLY_UPPER 2
M  POLY_LOWER 8
M  POLY_CHG 0
M  POLY_PROPERTIES PROTEIN POLYMER ALPHA_AA ALIPHATIC
M  END

$$$$
DHA_new
     RDKit          3D

 20 19  0  0  0  0  0  0  0  0999 V2000
    2.6946   -1.0823    2.5923 C   0  0  0  0  0  0  0  0  0  0  0  0
    1.7107   -0.2606    1.8831 N   0  0  0  0  0  0  0  0  0  0  0  0
    0.5778   -0.8267    1.3056 C   0  0  0  0  0  0  0  0  0  0  0  0
    0.4163   -2.0721    1.4072 O   0  0  0  0  0  0  0  0  0  0  0  0
   -0.4749   -0.0762    0.5672 C   0  0  0  0  0  0  0  0  0  0  0  0
   -0.3585    1.2257    0.4301 C   0  0  0  0  0  0  0  0  0  0  0  0
   -1.5655   -0.7779    0.0360 N   0  0  0  0  0  0  0  0  0  0  0  0
   -2.6281   -0.2385   -0.6748 C   0  0  0  0  0  0  0  0  0  0  0  0
   -3.7326   -1.1466   -1.1818 C   0  0  0  0  0  0  0  0  0  0  0  0
   -2.8068    0.9618   -0.9696 O   0  0  0  0  0  0  0  0  0  0  0  0
    3.6799   -0.9585    2.1471 H   0  0  0  0  0  0  0  0  0  0  0  0
    2.7484   -0.6784    3.6359 H   0  0  0  0  0  0  0  0  0  0  0  0
    2.3813   -2.1249    2.5395 H   0  0  0  0  0  0  0  0  0  0  0  0
    1.8910    0.7577    1.8284 H   0  0  0  0  0  0  0  0  0  0  0  0
    0.5056    1.7420    0.8573 H   0  0  0  0  0  0  0  0  0  0  0  0
   -1.0887    1.7980   -0.0902 H   0  0  0  0  0  0  0  0  0  0  0  0
   -1.5646   -1.8511    0.2060 H   0  0  0  0  0  0  0  0  0  0  0  0
   -4.7010   -0.6310   -0.9837 H   0  0  0  0  0  0  0  0  0  0  0  0
   -3.7073   -2.0398   -0.5544 H   0  0  0  0  0  0  0  0  0  0  0  0
   -3.5841   -1.3725   -2.2403 H   0  0  0  0  0  0  0  0  0  0  0  0
  1  2  1  0
  1 11  1  0
  1 12  1  0
  1 13  1  0
  2  3  1  0
  2 14  1  0
  3  4  2  0
  3  5  1  0
  5  6  2  3
  5  7  1  0
  6 15  1  0
  6 16  1  0
  7  8  1  0
  7 17  1  0
  8  9  1  0
  8 10  2  0
  9 18  1  0
  9 19  1  0
  9 20  1  0
M  END

> <RosettaParamsInstructions>
M  ROOT 7
M  POLY_N_BB 7
M  POLY_CA_BB 5
M  POLY_C_BB 3
M  POLY_O_BB 4
M  POLY_IGNORE 1 10 9 14 11 12 13 18 19 20
M  POLY_UPPER 2
M  POLY_LOWER 8
M  POLY_CHG 0
M  POLY_PROPERTIES PROTEIN POLYMER ALPHA_AA ALIPHATIC
M  END

$$$$
DHA_new
     RDKit          3D

 20 19  0  0  0  0  0  0  0  0999 V2000
    2.7402   -1.0205    2.4966 C   0  0  0  0  0  0  0  0  0  0  0  0
    1.6607   -0.2322    1.8884 N   0  0  0  0  0  0  0  0  0  0  0  0
    0.5998   -0.8803    1.2504 C   0  0  0  0  0  0  0  0  0  0  0  0
    0.5420   -2.1592    1.1803 O   0  0  0  0  0  0  0  0  0  0  0  0
   -0.4950   -0.0996    0.6333 C   0  0  0  0  0  0  0  0  0  0  0  0
   -0.4645    1.2000    0.6881 C   0  0  0  0  0  0  0  0  0  0  0  0
   -1.5414   -0.8001    0.0022 N   0  0  0  0  0  0  0  0  0  0  0  0
   -2.6524   -0.2364   -0.6306 C   0  0  0  0  0  0  0  0  0  0  0  0
   -3.6861   -1.1416   -1.2601 C   0  0  0  0  0  0  0  0  0  0  0  0
   -2.8935    0.9792   -0.7367 O   0  0  0  0  0  0  0  0  0  0  0  0
    3.3561   -0.4420    3.1825 H   0  0  0  0  0  0  0  0  0  0  0  0
    3.3595   -1.4430    1.6917 H   0  0  0  0  0  0  0  0  0  0  0  0
    2.2654   -1.8462    3.0632 H   0  0  0  0  0  0  0  0  0  0  0  0
    1.7651    0.7878    1.9784 H   0  0  0  0  0  0  0  0  0  0  0  0
   -1.2151    1.8461    0.2681 H   0  0  0  0  0  0  0  0  0  0  0  0
    0.3492    1.7654    1.1794 H   0  0  0  0  0  0  0  0  0  0  0  0
   -1.4847   -1.8756    0.0046 H   0  0  0  0  0  0  0  0  0  0  0  0
   -4.5241   -1.2068   -0.5342 H   0  0  0  0  0  0  0  0  0  0  0  0
   -4.0489   -0.7037   -2.1935 H   0  0  0  0  0  0  0  0  0  0  0  0
   -3.2388   -2.1436   -1.4112 H   0  0  0  0  0  0  0  0  0  0  0  0
  1  2  1  0
  1 11  1  0
  1 12  1  0
  1 13  1  0
  2  3  1  0
  2 14  1  0
  3  4  2  0
  3  5  1  0
  5  6  2  3
  5  7  1  0
  6 15  1  0
  6 16  1  0
  7  8  1  0
  7 17  1  0
  8  9  1  0
  8 10  2  0
  9 18  1  0
  9 19  1  0
  9 20  1  0
M  END

> <RosettaParamsInstructions>
M  ROOT 7
M  POLY_N_BB 7
M  POLY_CA_BB 5
M  POLY_C_BB 3
M  POLY_O_BB 4
M  POLY_IGNORE 1 10 9 14 11 12 13 18 19 20
M  POLY_UPPER 2
M  POLY_LOWER 8
M  POLY_CHG 0
M  POLY_PROPERTIES PROTEIN POLYMER ALPHA_AA ALIPHATIC
M  END

$$$$
DHA_new
     RDKit          3D

 20 19  0  0  0  0  0  0  0  0999 V2000
    2.6994   -1.0567    2.5131 C   0  0  0  0  0  0  0  0  0  0  0  0
    1.6933   -0.2372    1.8411 N   0  0  0  0  0  0  0  0  0  0  0  0
    0.5637   -0.8299    1.2771 C   0  0  0  0  0  0  0  0  0  0  0  0
    0.4403   -2.0849    1.3653 O   0  0  0  0  0  0  0  0  0  0  0  0
   -0.4787   -0.0480    0.5893 C   0  0  0  0  0  0  0  0  0  0  0  0
   -0.3758    1.2433    0.4850 C   0  0  0  0  0  0  0  0  0  0  0  0
   -1.5764   -0.7728    0.0599 N   0  0  0  0  0  0  0  0  0  0  0  0
   -2.6656   -0.2423   -0.6227 C   0  0  0  0  0  0  0  0  0  0  0  0
   -3.7473   -1.1685   -1.1177 C   0  0  0  0  0  0  0  0  0  0  0  0
   -2.8362    0.9660   -0.8712 O   0  0  0  0  0  0  0  0  0  0  0  0
    3.7070   -0.8862    2.0927 H   0  0  0  0  0  0  0  0  0  0  0  0
    2.4608   -2.1439    2.3464 H   0  0  0  0  0  0  0  0  0  0  0  0
    2.7550   -0.8654    3.5893 H   0  0  0  0  0  0  0  0  0  0  0  0
    1.8776    0.7738    1.8181 H   0  0  0  0  0  0  0  0  0  0  0  0
    0.4966    1.7627    0.9128 H   0  0  0  0  0  0  0  0  0  0  0  0
   -1.0658    1.9042    0.0116 H   0  0  0  0  0  0  0  0  0  0  0  0
   -1.5922   -1.8431    0.1857 H   0  0  0  0  0  0  0  0  0  0  0  0
   -3.7235   -2.0711   -0.5008 H   0  0  0  0  0  0  0  0  0  0  0  0
   -4.7197   -0.6418   -1.0550 H   0  0  0  0  0  0  0  0  0  0  0  0
   -3.5189   -1.4103   -2.1791 H   0  0  0  0  0  0  0  0  0  0  0  0
  1  2  1  0
  1 11  1  0
  1 12  1  0
  1 13  1  0
  2  3  1  0
  2 14  1  0
  3  4  2  0
  3  5  1  0
  5  6  2  3
  5  7  1  0
  6 15  1  0
  6 16  1  0
  7  8  1  0
  7 17  1  0
  8  9  1  0
  8 10  2  0
  9 18  1  0
  9 19  1  0
  9 20  1  0
M  END

> <RosettaParamsInstructions>
M  ROOT 7
M  POLY_N_BB 7
M  POLY_CA_BB 5
M  POLY_C_BB 3
M  POLY_O_BB 4
M  POLY_IGNORE 1 10 9 14 11 12 13 18 19 20
M  POLY_UPPER 2
M  POLY_LOWER 8
M  POLY_CHG 0
M  POLY_PROPERTIES PROTEIN POLYMER ALPHA_AA ALIPHATIC
M  END

$$$$
DHA_new
     RDKit          3D

 20 19  0  0  0  0  0  0  0  0999 V2000
    2.6758   -1.0757    2.5750 C   0  0  0  0  0  0  0  0  0  0  0  0
    1.7094   -0.2549    1.8759 N   0  0  0  0  0  0  0  0  0  0  0  0
    0.5545   -0.7953    1.2924 C   0  0  0  0  0  0  0  0  0  0  0  0
    0.3793   -2.0340    1.3953 O   0  0  0  0  0  0  0  0  0  0  0  0
   -0.4675   -0.0245    0.5692 C   0  0  0  0  0  0  0  0  0  0  0  0
   -0.3420    1.2697    0.4281 C   0  0  0  0  0  0  0  0  0  0  0  0
   -1.5633   -0.7323    0.0477 N   0  0  0  0  0  0  0  0  0  0  0  0
   -2.6539   -0.2361   -0.6701 C   0  0  0  0  0  0  0  0  0  0  0  0
   -3.7291   -1.1725   -1.1417 C   0  0  0  0  0  0  0  0  0  0  0  0
   -2.8129    0.9613   -0.9609 O   0  0  0  0  0  0  0  0  0  0  0  0
    3.6809   -0.6066    2.5650 H   0  0  0  0  0  0  0  0  0  0  0  0
    2.2935   -1.2215    3.6081 H   0  0  0  0  0  0  0  0  0  0  0  0
    2.7245   -2.0768    2.0956 H   0  0  0  0  0  0  0  0  0  0  0  0
    1.9166    0.7540    1.8296 H   0  0  0  0  0  0  0  0  0  0  0  0
    0.5428    1.7640    0.8619 H   0  0  0  0  0  0  0  0  0  0  0  0
   -1.0606    1.8745   -0.0908 H   0  0  0  0  0  0  0  0  0  0  0  0
   -1.5887   -1.8006    0.2097 H   0  0  0  0  0  0  0  0  0  0  0  0
   -3.2882   -2.1970   -1.2218 H   0  0  0  0  0  0  0  0  0  0  0  0
   -4.0416   -0.8683   -2.1424 H   0  0  0  0  0  0  0  0  0  0  0  0
   -4.5359   -1.1792   -0.3849 H   0  0  0  0  0  0  0  0  0  0  0  0
  1  2  1  0
  1 11  1  0
  1 12  1  0
  1 13  1  0
  2  3  1  0
  2 14  1  0
  3  4  2  0
  3  5  1  0
  5  6  2  3
  5  7  1  0
  6 15  1  0
  6 16  1  0
  7  8  1  0
  7 17  1  0
  8  9  1  0
  8 10  2  0
  9 18  1  0
  9 19  1  0
  9 20  1  0
M  END

> <RosettaParamsInstructions>
M  ROOT 7
M  POLY_N_BB 7
M  POLY_CA_BB 5
M  POLY_C_BB 3
M  POLY_O_BB 4
M  POLY_IGNORE 1 10 9 14 11 12 13 18 19 20
M  POLY_UPPER 2
M  POLY_LOWER 8
M  POLY_CHG 0
M  POLY_PROPERTIES PROTEIN POLYMER ALPHA_AA ALIPHATIC
M  END

$$$$
DHA_new
     RDKit          3D

 20 19  0  0  0  0  0  0  0  0999 V2000
    2.7066   -1.0446    2.5262 C   0  0  0  0  0  0  0  0  0  0  0  0
    1.6596   -0.2098    1.8914 N   0  0  0  0  0  0  0  0  0  0  0  0
    0.5861   -0.8589    1.2674 C   0  0  0  0  0  0  0  0  0  0  0  0
    0.5219   -2.1254    1.2520 O   0  0  0  0  0  0  0  0  0  0  0  0
   -0.4876   -0.0927    0.6180 C   0  0  0  0  0  0  0  0  0  0  0  0
   -0.4497    1.2191    0.6170 C   0  0  0  0  0  0  0  0  0  0  0  0
   -1.5289   -0.8304    0.0147 N   0  0  0  0  0  0  0  0  0  0  0  0
   -2.6197   -0.2527   -0.6415 C   0  0  0  0  0  0  0  0  0  0  0  0
   -3.6749   -1.1562   -1.2501 C   0  0  0  0  0  0  0  0  0  0  0  0
   -2.8582    0.9606   -0.8044 O   0  0  0  0  0  0  0  0  0  0  0  0
    2.8907   -0.5857    3.5142 H   0  0  0  0  0  0  0  0  0  0  0  0
    3.5651   -1.0748    1.8596 H   0  0  0  0  0  0  0  0  0  0  0  0
    2.2815   -2.0390    2.7087 H   0  0  0  0  0  0  0  0  0  0  0  0
    1.8207    0.7991    1.9681 H   0  0  0  0  0  0  0  0  0  0  0  0
   -1.1893    1.8568    0.1678 H   0  0  0  0  0  0  0  0  0  0  0  0
    0.3974    1.7359    1.1094 H   0  0  0  0  0  0  0  0  0  0  0  0
   -1.4780   -1.9136    0.0641 H   0  0  0  0  0  0  0  0  0  0  0  0
   -3.4007   -2.2203   -1.1175 H   0  0  0  0  0  0  0  0  0  0  0  0
   -4.6085   -0.9253   -0.6945 H   0  0  0  0  0  0  0  0  0  0  0  0
   -3.7407   -0.8942   -2.3297 H   0  0  0  0  0  0  0  0  0  0  0  0
  1  2  1  0
  1 11  1  0
  1 12  1  0
  1 13  1  0
  2  3  1  0
  2 14  1  0
  3  4  2  0
  3  5  1  0
  5  6  2  3
  5  7  1  0
  6 15  1  0
  6 16  1  0
  7  8  1  0
  7 17  1  0
  8  9  1  0
  8 10  2  0
  9 18  1  0
  9 19  1  0
  9 20  1  0
M  END

> <RosettaParamsInstructions>
M  ROOT 7
M  POLY_N_BB 7
M  POLY_CA_BB 5
M  POLY_C_BB 3
M  POLY_O_BB 4
M  POLY_IGNORE 1 10 9 14 11 12 13 18 19 20
M  POLY_UPPER 2
M  POLY_LOWER 8
M  POLY_CHG 0
M  POLY_PROPERTIES PROTEIN POLYMER ALPHA_AA ALIPHATIC
M  END

$$$$
DHA_new
     RDKit          3D

 20 19  0  0  0  0  0  0  0  0999 V2000
    2.6542   -1.0920    2.5683 C   0  0  0  0  0  0  0  0  0  0  0  0
    1.6845   -0.2138    1.8709 N   0  0  0  0  0  0  0  0  0  0  0  0
    0.5679   -0.8385    1.2999 C   0  0  0  0  0  0  0  0  0  0  0  0
    0.4127   -2.0936    1.3862 O   0  0  0  0  0  0  0  0  0  0  0  0
   -0.4542   -0.0673    0.5867 C   0  0  0  0  0  0  0  0  0  0  0  0
   -0.3516    1.2309    0.4632 C   0  0  0  0  0  0  0  0  0  0  0  0
   -1.5553   -0.7610    0.0345 N   0  0  0  0  0  0  0  0  0  0  0  0
   -2.6227   -0.2226   -0.6724 C   0  0  0  0  0  0  0  0  0  0  0  0
   -3.6848   -1.1754   -1.1648 C   0  0  0  0  0  0  0  0  0  0  0  0
   -2.7766    0.9858   -0.9347 O   0  0  0  0  0  0  0  0  0  0  0  0
    3.5982   -0.5476    2.6073 H   0  0  0  0  0  0  0  0  0  0  0  0
    2.7078   -2.0109    1.9636 H   0  0  0  0  0  0  0  0  0  0  0  0
    2.2631   -1.2755    3.5940 H   0  0  0  0  0  0  0  0  0  0  0  0
    1.8734    0.8090    1.8381 H   0  0  0  0  0  0  0  0  0  0  0  0
   -1.0346    1.8841   -0.0330 H   0  0  0  0  0  0  0  0  0  0  0  0
    0.5087    1.7591    0.8965 H   0  0  0  0  0  0  0  0  0  0  0  0
   -1.5547   -1.8223    0.1854 H   0  0  0  0  0  0  0  0  0  0  0  0
   -4.6530   -0.6222   -1.2021 H   0  0  0  0  0  0  0  0  0  0  0  0
   -3.7837   -1.9711   -0.4070 H   0  0  0  0  0  0  0  0  0  0  0  0
   -3.4058   -1.6072   -2.1397 H   0  0  0  0  0  0  0  0  0  0  0  0
  1  2  1  0
  1 11  1  0
  1 12  1  0
  1 13  1  0
  2  3  1  0
  2 14  1  0
  3  4  2  0
  3  5  1  0
  5  6  2  3
  5  7  1  0
  6 15  1  0
  6 16  1  0
  7  8  1  0
  7 17  1  0
  8  9  1  0
  8 10  2  0
  9 18  1  0
  9 19  1  0
  9 20  1  0
M  END

> <RosettaParamsInstructions>
M  ROOT 7
M  POLY_N_BB 7
M  POLY_CA_BB 5
M  POLY_C_BB 3
M  POLY_O_BB 4
M  POLY_IGNORE 1 10 9 14 11 12 13 18 19 20
M  POLY_UPPER 2
M  POLY_LOWER 8
M  POLY_CHG 0
M  POLY_PROPERTIES PROTEIN POLYMER ALPHA_AA ALIPHATIC
M  END

$$$$
DHA_new
     RDKit          3D

 20 19  0  0  0  0  0  0  0  0999 V2000
    2.6577   -1.0393    2.5586 C   0  0  0  0  0  0  0  0  0  0  0  0
    1.6882   -0.1964    1.8495 N   0  0  0  0  0  0  0  0  0  0  0  0
    0.5702   -0.8252    1.3047 C   0  0  0  0  0  0  0  0  0  0  0  0
    0.4128   -2.0644    1.4241 O   0  0  0  0  0  0  0  0  0  0  0  0
   -0.4663   -0.0656    0.5707 C   0  0  0  0  0  0  0  0  0  0  0  0
   -0.3268    1.2206    0.4329 C   0  0  0  0  0  0  0  0  0  0  0  0
   -1.5642   -0.7847    0.0529 N   0  0  0  0  0  0  0  0  0  0  0  0
   -2.6129   -0.2518   -0.6495 C   0  0  0  0  0  0  0  0  0  0  0  0
   -3.7226   -1.1493   -1.1438 C   0  0  0  0  0  0  0  0  0  0  0  0
   -2.7426    0.9425   -0.9287 O   0  0  0  0  0  0  0  0  0  0  0  0
    2.0884   -1.8131    3.1246 H   0  0  0  0  0  0  0  0  0  0  0  0
    3.2802   -1.5579    1.8273 H   0  0  0  0  0  0  0  0  0  0  0  0
    3.2488   -0.4768    3.2854 H   0  0  0  0  0  0  0  0  0  0  0  0
    1.9319    0.7997    1.8219 H   0  0  0  0  0  0  0  0  0  0  0  0
   -1.0195    1.8568   -0.0795 H   0  0  0  0  0  0  0  0  0  0  0  0
    0.5539    1.7357    0.8588 H   0  0  0  0  0  0  0  0  0  0  0  0
   -1.5866   -1.8491    0.2213 H   0  0  0  0  0  0  0  0  0  0  0  0
   -4.6906   -0.8763   -0.6708 H   0  0  0  0  0  0  0  0  0  0  0  0
   -3.5230   -2.2063   -0.8910 H   0  0  0  0  0  0  0  0  0  0  0  0
   -3.7835   -1.0512   -2.2287 H   0  0  0  0  0  0  0  0  0  0  0  0
  1  2  1  0
  1 11  1  0
  1 12  1  0
  1 13  1  0
  2  3  1  0
  2 14  1  0
  3  4  2  0
  3  5  1  0
  5  6  2  3
  5  7  1  0
  6 15  1  0
  6 16  1  0
  7  8  1  0
  7 17  1  0
  8  9  1  0
  8 10  2  0
  9 18  1  0
  9 19  1  0
  9 20  1  0
M  END

> <RosettaParamsInstructions>
M  ROOT 7
M  POLY_N_BB 7
M  POLY_CA_BB 5
M  POLY_C_BB 3
M  POLY_O_BB 4
M  POLY_IGNORE 1 10 9 14 11 12 13 18 19 20
M  POLY_UPPER 2
M  POLY_LOWER 8
M  POLY_CHG 0
M  POLY_PROPERTIES PROTEIN POLYMER ALPHA_AA ALIPHATIC
M  END

$$$$
DHA_new
     RDKit          3D

 20 19  0  0  0  0  0  0  0  0999 V2000
    2.2600   -1.6060    2.4307 C   0  0  0  0  0  0  0  0  0  0  0  0
    1.0625   -1.2337    1.6668 N   0  0  0  0  0  0  0  0  0  0  0  0
    0.8175    0.0910    1.3082 C   0  0  0  0  0  0  0  0  0  0  0  0
    1.6764    0.9649    1.6710 O   0  0  0  0  0  0  0  0  0  0  0  0
   -0.3663    0.5167    0.5438 C   0  0  0  0  0  0  0  0  0  0  0  0
   -0.5021    1.8200    0.2527 C   0  0  0  0  0  0  0  0  0  0  0  0
   -1.3140   -0.4417    0.1425 N   0  0  0  0  0  0  0  0  0  0  0  0
   -2.4927   -0.2385   -0.5828 C   0  0  0  0  0  0  0  0  0  0  0  0
   -3.3433   -1.4502   -0.8862 C   0  0  0  0  0  0  0  0  0  0  0  0
   -2.8975    0.8622   -0.9991 O   0  0  0  0  0  0  0  0  0  0  0  0
    2.0252   -2.3881    3.1622 H   0  0  0  0  0  0  0  0  0  0  0  0
    2.6765   -0.7225    2.9564 H   0  0  0  0  0  0  0  0  0  0  0  0
    3.0558   -1.9699    1.7518 H   0  0  0  0  0  0  0  0  0  0  0  0
    0.4329   -1.9998    1.4212 H   0  0  0  0  0  0  0  0  0  0  0  0
    0.2819    2.5045    0.6023 H   0  0  0  0  0  0  0  0  0  0  0  0
   -1.3116    2.2236   -0.2882 H   0  0  0  0  0  0  0  0  0  0  0  0
   -1.1208   -1.4460    0.4188 H   0  0  0  0  0  0  0  0  0  0  0  0
   -2.9944   -1.8439   -1.8632 H   0  0  0  0  0  0  0  0  0  0  0  0
   -4.3785   -1.1111   -0.8918 H   0  0  0  0  0  0  0  0  0  0  0  0
   -3.1738   -2.1837   -0.0764 H   0  0  0  0  0  0  0  0  0  0  0  0
  1  2  1  0
  1 11  1  0
  1 12  1  0
  1 13  1  0
  2  3  1  0
  2 14  1  0
  3  4  2  0
  3  5  1  0
  5  6  2  3
  5  7  1  0
  6 15  1  0
  6 16  1  0
  7  8  1  0
  7 17  1  0
  8  9  1  0
  8 10  2  0
  9 18  1  0
  9 19  1  0
  9 20  1  0
M  END

> <RosettaParamsInstructions>
M  ROOT 7
M  POLY_N_BB 7
M  POLY_CA_BB 5
M  POLY_C_BB 3
M  POLY_O_BB 4
M  POLY_IGNORE 1 10 9 14 11 12 13 18 19 20
M  POLY_UPPER 2
M  POLY_LOWER 8
M  POLY_CHG 0
M  POLY_PROPERTIES PROTEIN POLYMER ALPHA_AA ALIPHATIC
M  END

$$$$
DHA_new
     RDKit          3D

 20 19  0  0  0  0  0  0  0  0999 V2000
    2.6486   -1.0514    2.5649 C   0  0  0  0  0  0  0  0  0  0  0  0
    1.6807   -0.2368    1.8640 N   0  0  0  0  0  0  0  0  0  0  0  0
    0.5575   -0.8130    1.2957 C   0  0  0  0  0  0  0  0  0  0  0  0
    0.4067   -2.0629    1.4082 O   0  0  0  0  0  0  0  0  0  0  0  0
   -0.4529   -0.0598    0.5798 C   0  0  0  0  0  0  0  0  0  0  0  0
   -0.3258    1.2323    0.4466 C   0  0  0  0  0  0  0  0  0  0  0  0
   -1.5459   -0.7919    0.0543 N   0  0  0  0  0  0  0  0  0  0  0  0
   -2.6164   -0.2378   -0.6649 C   0  0  0  0  0  0  0  0  0  0  0  0
   -3.7147   -1.1397   -1.1661 C   0  0  0  0  0  0  0  0  0  0  0  0
   -2.7540    0.9583   -0.9384 O   0  0  0  0  0  0  0  0  0  0  0  0
    3.6438   -0.5994    2.5358 H   0  0  0  0  0  0  0  0  0  0  0  0
    2.3398   -1.1724    3.6283 H   0  0  0  0  0  0  0  0  0  0  0  0
    2.6443   -2.0469    2.0547 H   0  0  0  0  0  0  0  0  0  0  0  0
    1.8768    0.7674    1.8178 H   0  0  0  0  0  0  0  0  0  0  0  0
    0.5364    1.7384    0.8726 H   0  0  0  0  0  0  0  0  0  0  0  0
   -1.0027    1.9135   -0.0615 H   0  0  0  0  0  0  0  0  0  0  0  0
   -1.5998   -1.8469    0.1925 H   0  0  0  0  0  0  0  0  0  0  0  0
   -3.4519   -1.5444   -2.1516 H   0  0  0  0  0  0  0  0  0  0  0  0
   -4.6931   -0.6370   -1.1244 H   0  0  0  0  0  0  0  0  0  0  0  0
   -3.7838   -2.0218   -0.4674 H   0  0  0  0  0  0  0  0  0  0  0  0
  1  2  1  0
  1 11  1  0
  1 12  1  0
  1 13  1  0
  2  3  1  0
  2 14  1  0
  3  4  2  0
  3  5  1  0
  5  6  2  3
  5  7  1  0
  6 15  1  0
  6 16  1  0
  7  8  1  0
  7 17  1  0
  8  9  1  0
  8 10  2  0
  9 18  1  0
  9 19  1  0
  9 20  1  0
M  END

> <RosettaParamsInstructions>
M  ROOT 7
M  POLY_N_BB 7
M  POLY_CA_BB 5
M  POLY_C_BB 3
M  POLY_O_BB 4
M  POLY_IGNORE 1 10 9 14 11 12 13 18 19 20
M  POLY_UPPER 2
M  POLY_LOWER 8
M  POLY_CHG 0
M  POLY_PROPERTIES PROTEIN POLYMER ALPHA_AA ALIPHATIC
M  END

$$$$
DHA_new
     RDKit          3D

 20 19  0  0  0  0  0  0  0  0999 V2000
    2.6933   -1.0580    2.5787 C   0  0  0  0  0  0  0  0  0  0  0  0
    1.6865   -0.2628    1.8639 N   0  0  0  0  0  0  0  0  0  0  0  0
    0.5514   -0.8505    1.2893 C   0  0  0  0  0  0  0  0  0  0  0  0
    0.4146   -2.0955    1.4032 O   0  0  0  0  0  0  0  0  0  0  0  0
   -0.4417   -0.0642    0.5838 C   0  0  0  0  0  0  0  0  0  0  0  0
   -0.2904    1.2316    0.4705 C   0  0  0  0  0  0  0  0  0  0  0  0
   -1.5512   -0.7652    0.0420 N   0  0  0  0  0  0  0  0  0  0  0  0
   -2.6417   -0.2750   -0.6745 C   0  0  0  0  0  0  0  0  0  0  0  0
   -3.7254   -1.1717   -1.1707 C   0  0  0  0  0  0  0  0  0  0  0  0
   -2.7671    0.9304   -0.9361 O   0  0  0  0  0  0  0  0  0  0  0  0
    2.2925   -2.0827    2.6981 H   0  0  0  0  0  0  0  0  0  0  0  0
    3.6353   -1.0699    2.0123 H   0  0  0  0  0  0  0  0  0  0  0  0
    2.7814   -0.5990    3.5814 H   0  0  0  0  0  0  0  0  0  0  0  0
    1.8472    0.7550    1.7994 H   0  0  0  0  0  0  0  0  0  0  0  0
    0.5489    1.7905    0.8759 H   0  0  0  0  0  0  0  0  0  0  0  0
   -1.0018    1.8850   -0.0489 H   0  0  0  0  0  0  0  0  0  0  0  0
   -1.5581   -1.8234    0.2030 H   0  0  0  0  0  0  0  0  0  0  0  0
   -3.5087   -2.2304   -0.9440 H   0  0  0  0  0  0  0  0  0  0  0  0
   -3.8745   -0.9539   -2.2279 H   0  0  0  0  0  0  0  0  0  0  0  0
   -4.6970   -0.9426   -0.6585 H   0  0  0  0  0  0  0  0  0  0  0  0
  1  2  1  0
  1 11  1  0
  1 12  1  0
  1 13  1  0
  2  3  1  0
  2 14  1  0
  3  4  2  0
  3  5  1  0
  5  6  2  3
  5  7  1  0
  6 15  1  0
  6 16  1  0
  7  8  1  0
  7 17  1  0
  8  9  1  0
  8 10  2  0
  9 18  1  0
  9 19  1  0
  9 20  1  0
M  END

> <RosettaParamsInstructions>
M  ROOT 7
M  POLY_N_BB 7
M  POLY_CA_BB 5
M  POLY_C_BB 3
M  POLY_O_BB 4
M  POLY_IGNORE 1 10 9 14 11 12 13 18 19 20
M  POLY_UPPER 2
M  POLY_LOWER 8
M  POLY_CHG 0
M  POLY_PROPERTIES PROTEIN POLYMER ALPHA_AA ALIPHATIC
M  END

$$$$
DHA_new
     RDKit          3D

 20 19  0  0  0  0  0  0  0  0999 V2000
    2.7263   -1.0600    2.4950 C   0  0  0  0  0  0  0  0  0  0  0  0
    1.6550   -0.2519    1.8991 N   0  0  0  0  0  0  0  0  0  0  0  0
    0.5707   -0.8480    1.2391 C   0  0  0  0  0  0  0  0  0  0  0  0
    0.5512   -2.1110    1.1768 O   0  0  0  0  0  0  0  0  0  0  0  0
   -0.4929   -0.0644    0.6468 C   0  0  0  0  0  0  0  0  0  0  0  0
   -0.4604    1.2313    0.7181 C   0  0  0  0  0  0  0  0  0  0  0  0
   -1.5418   -0.7765    0.0029 N   0  0  0  0  0  0  0  0  0  0  0  0
   -2.6631   -0.2529   -0.6337 C   0  0  0  0  0  0  0  0  0  0  0  0
   -3.6750   -1.1642   -1.2639 C   0  0  0  0  0  0  0  0  0  0  0  0
   -2.9186    0.9653   -0.7344 O   0  0  0  0  0  0  0  0  0  0  0  0
    2.7265   -0.8812    3.5813 H   0  0  0  0  0  0  0  0  0  0  0  0
    3.6882   -0.7875    2.0488 H   0  0  0  0  0  0  0  0  0  0  0  0
    2.5155   -2.1111    2.2682 H   0  0  0  0  0  0  0  0  0  0  0  0
    1.7372    0.7668    1.9884 H   0  0  0  0  0  0  0  0  0  0  0  0
   -1.2124    1.9194    0.3048 H   0  0  0  0  0  0  0  0  0  0  0  0
    0.3410    1.7795    1.2103 H   0  0  0  0  0  0  0  0  0  0  0  0
   -1.4767   -1.8455   -0.0020 H   0  0  0  0  0  0  0  0  0  0  0  0
   -4.5270   -1.2642   -0.5857 H   0  0  0  0  0  0  0  0  0  0  0  0
   -3.9411   -0.7299   -2.2375 H   0  0  0  0  0  0  0  0  0  0  0  0
   -3.2091   -2.1660   -1.3817 H   0  0  0  0  0  0  0  0  0  0  0  0
  1  2  1  0
  1 11  1  0
  1 12  1  0
  1 13  1  0
  2  3  1  0
  2 14  1  0
  3  4  2  0
  3  5  1  0
  5  6  2  3
  5  7  1  0
  6 15  1  0
  6 16  1  0
  7  8  1  0
  7 17  1  0
  8  9  1  0
  8 10  2  0
  9 18  1  0
  9 19  1  0
  9 20  1  0
M  END

> <RosettaParamsInstructions>
M  ROOT 7
M  POLY_N_BB 7
M  POLY_CA_BB 5
M  POLY_C_BB 3
M  POLY_O_BB 4
M  POLY_IGNORE 1 10 9 14 11 12 13 18 19 20
M  POLY_UPPER 2
M  POLY_LOWER 8
M  POLY_CHG 0
M  POLY_PROPERTIES PROTEIN POLYMER ALPHA_AA ALIPHATIC
M  END

$$$$
DHA_new
     RDKit          3D

 20 19  0  0  0  0  0  0  0  0999 V2000
    2.6779   -1.0552    2.5766 C   0  0  0  0  0  0  0  0  0  0  0  0
    1.6691   -0.2409    1.8719 N   0  0  0  0  0  0  0  0  0  0  0  0
    0.5529   -0.8407    1.2895 C   0  0  0  0  0  0  0  0  0  0  0  0
    0.4334   -2.1066    1.3852 O   0  0  0  0  0  0  0  0  0  0  0  0
   -0.4720   -0.0866    0.5833 C   0  0  0  0  0  0  0  0  0  0  0  0
   -0.3448    1.2106    0.4881 C   0  0  0  0  0  0  0  0  0  0  0  0
   -1.5611   -0.7941    0.0312 N   0  0  0  0  0  0  0  0  0  0  0  0
   -2.6117   -0.2465   -0.6632 C   0  0  0  0  0  0  0  0  0  0  0  0
   -3.7069   -1.1390   -1.1946 C   0  0  0  0  0  0  0  0  0  0  0  0
   -2.7510    0.9513   -0.9032 O   0  0  0  0  0  0  0  0  0  0  0  0
    3.5825   -0.4608    2.7943 H   0  0  0  0  0  0  0  0  0  0  0  0
    2.9167   -1.9057    1.9330 H   0  0  0  0  0  0  0  0  0  0  0  0
    2.2313   -1.3498    3.5297 H   0  0  0  0  0  0  0  0  0  0  0  0
    1.8311    0.7732    1.8346 H   0  0  0  0  0  0  0  0  0  0  0  0
    0.5123    1.7292    0.9277 H   0  0  0  0  0  0  0  0  0  0  0  0
   -1.0391    1.8858   -0.0119 H   0  0  0  0  0  0  0  0  0  0  0  0
   -1.5579   -1.8616    0.1734 H   0  0  0  0  0  0  0  0  0  0  0  0
   -4.4682   -1.2785   -0.3983 H   0  0  0  0  0  0  0  0  0  0  0  0
   -3.2954   -2.1420   -1.4397 H   0  0  0  0  0  0  0  0  0  0  0  0
   -4.2058   -0.6943   -2.0670 H   0  0  0  0  0  0  0  0  0  0  0  0
  1  2  1  0
  1 11  1  0
  1 12  1  0
  1 13  1  0
  2  3  1  0
  2 14  1  0
  3  4  2  0
  3  5  1  0
  5  6  2  3
  5  7  1  0
  6 15  1  0
  6 16  1  0
  7  8  1  0
  7 17  1  0
  8  9  1  0
  8 10  2  0
  9 18  1  0
  9 19  1  0
  9 20  1  0
M  END

> <RosettaParamsInstructions>
M  ROOT 7
M  POLY_N_BB 7
M  POLY_CA_BB 5
M  POLY_C_BB 3
M  POLY_O_BB 4
M  POLY_IGNORE 1 10 9 14 11 12 13 18 19 20
M  POLY_UPPER 2
M  POLY_LOWER 8
M  POLY_CHG 0
M  POLY_PROPERTIES PROTEIN POLYMER ALPHA_AA ALIPHATIC
M  END

$$$$
DHA_new
     RDKit          3D

 20 19  0  0  0  0  0  0  0  0999 V2000
    2.6380   -1.0935    2.5731 C   0  0  0  0  0  0  0  0  0  0  0  0
    1.6848   -0.2279    1.8637 N   0  0  0  0  0  0  0  0  0  0  0  0
    0.5539   -0.8107    1.3004 C   0  0  0  0  0  0  0  0  0  0  0  0
    0.3967   -2.0622    1.4246 O   0  0  0  0  0  0  0  0  0  0  0  0
   -0.4613   -0.0437    0.5716 C   0  0  0  0  0  0  0  0  0  0  0  0
   -0.2922    1.2435    0.4482 C   0  0  0  0  0  0  0  0  0  0  0  0
   -1.5627   -0.7727    0.0508 N   0  0  0  0  0  0  0  0  0  0  0  0
   -2.6302   -0.2376   -0.6688 C   0  0  0  0  0  0  0  0  0  0  0  0
   -3.7193   -1.1583   -1.1493 C   0  0  0  0  0  0  0  0  0  0  0  0
   -2.7661    0.9600   -0.9558 O   0  0  0  0  0  0  0  0  0  0  0  0
    2.1247   -1.9801    2.9557 H   0  0  0  0  0  0  0  0  0  0  0  0
    3.0702   -0.4899    3.3993 H   0  0  0  0  0  0  0  0  0  0  0  0
    3.4579   -1.3476    1.8619 H   0  0  0  0  0  0  0  0  0  0  0  0
    1.8994    0.7845    1.8146 H   0  0  0  0  0  0  0  0  0  0  0  0
   -0.9922    1.8627   -0.0700 H   0  0  0  0  0  0  0  0  0  0  0  0
    0.5662    1.7645    0.8622 H   0  0  0  0  0  0  0  0  0  0  0  0
   -1.5946   -1.8336    0.2155 H   0  0  0  0  0  0  0  0  0  0  0  0
   -3.5248   -1.5244   -2.1705 H   0  0  0  0  0  0  0  0  0  0  0  0
   -4.6760   -0.6247   -1.0964 H   0  0  0  0  0  0  0  0  0  0  0  0
   -3.7788   -2.0606   -0.4899 H   0  0  0  0  0  0  0  0  0  0  0  0
  1  2  1  0
  1 11  1  0
  1 12  1  0
  1 13  1  0
  2  3  1  0
  2 14  1  0
  3  4  2  0
  3  5  1  0
  5  6  2  3
  5  7  1  0
  6 15  1  0
  6 16  1  0
  7  8  1  0
  7 17  1  0
  8  9  1  0
  8 10  2  0
  9 18  1  0
  9 19  1  0
  9 20  1  0
M  END

> <RosettaParamsInstructions>
M  ROOT 7
M  POLY_N_BB 7
M  POLY_CA_BB 5
M  POLY_C_BB 3
M  POLY_O_BB 4
M  POLY_IGNORE 1 10 9 14 11 12 13 18 19 20
M  POLY_UPPER 2
M  POLY_LOWER 8
M  POLY_CHG 0
M  POLY_PROPERTIES PROTEIN POLYMER ALPHA_AA ALIPHATIC
M  END

$$$$
DHA_new
     RDKit          3D

 20 19  0  0  0  0  0  0  0  0999 V2000
    2.6025   -1.0326    2.6659 C   0  0  0  0  0  0  0  0  0  0  0  0
    1.6649   -0.2284    1.8703 N   0  0  0  0  0  0  0  0  0  0  0  0
    0.5244   -0.8396    1.3500 C   0  0  0  0  0  0  0  0  0  0  0  0
    0.3121   -2.0653    1.5662 O   0  0  0  0  0  0  0  0  0  0  0  0
   -0.4497   -0.0692    0.5418 C   0  0  0  0  0  0  0  0  0  0  0  0
   -0.2328    1.1945    0.3177 C   0  0  0  0  0  0  0  0  0  0  0  0
   -1.5743   -0.7874    0.0612 N   0  0  0  0  0  0  0  0  0  0  0  0
   -2.5928   -0.2388   -0.7115 C   0  0  0  0  0  0  0  0  0  0  0  0
   -3.7247   -1.1515   -1.1420 C   0  0  0  0  0  0  0  0  0  0  0  0
   -2.7111    0.9403   -1.1153 O   0  0  0  0  0  0  0  0  0  0  0  0
    2.4190   -0.8509    3.7314 H   0  0  0  0  0  0  0  0  0  0  0  0
    2.4195   -2.0799    2.4315 H   0  0  0  0  0  0  0  0  0  0  0  0
    3.6230   -0.7312    2.3285 H   0  0  0  0  0  0  0  0  0  0  0  0
    1.9255    0.7571    1.7521 H   0  0  0  0  0  0  0  0  0  0  0  0
    0.6548    1.6673    0.7234 H   0  0  0  0  0  0  0  0  0  0  0  0
   -0.9312    1.7670   -0.2675 H   0  0  0  0  0  0  0  0  0  0  0  0
   -1.6215   -1.8174    0.3226 H   0  0  0  0  0  0  0  0  0  0  0  0
   -3.5219   -1.4918   -2.1746 H   0  0  0  0  0  0  0  0  0  0  0  0
   -3.7325   -2.0224   -0.4652 H   0  0  0  0  0  0  0  0  0  0  0  0
   -4.6597   -0.5722   -1.0456 H   0  0  0  0  0  0  0  0  0  0  0  0
  1  2  1  0
  1 11  1  0
  1 12  1  0
  1 13  1  0
  2  3  1  0
  2 14  1  0
  3  4  2  0
  3  5  1  0
  5  6  2  3
  5  7  1  0
  6 15  1  0
  6 16  1  0
  7  8  1  0
  7 17  1  0
  8  9  1  0
  8 10  2  0
  9 18  1  0
  9 19  1  0
  9 20  1  0
M  END

> <RosettaParamsInstructions>
M  ROOT 7
M  POLY_N_BB 7
M  POLY_CA_BB 5
M  POLY_C_BB 3
M  POLY_O_BB 4
M  POLY_IGNORE 1 10 9 14 11 12 13 18 19 20
M  POLY_UPPER 2
M  POLY_LOWER 8
M  POLY_CHG 0
M  POLY_PROPERTIES PROTEIN POLYMER ALPHA_AA ALIPHATIC
M  END

$$$$
DHA_new
     RDKit          3D

 20 19  0  0  0  0  0  0  0  0999 V2000
    2.6562   -1.0948    2.5443 C   0  0  0  0  0  0  0  0  0  0  0  0
    1.6578   -0.2022    1.8987 N   0  0  0  0  0  0  0  0  0  0  0  0
    0.5762   -0.8049    1.2832 C   0  0  0  0  0  0  0  0  0  0  0  0
    0.4659   -2.0825    1.2854 O   0  0  0  0  0  0  0  0  0  0  0  0
   -0.4848   -0.0518    0.6075 C   0  0  0  0  0  0  0  0  0  0  0  0
   -0.3929    1.2602    0.5925 C   0  0  0  0  0  0  0  0  0  0  0  0
   -1.5611   -0.7627    0.0010 N   0  0  0  0  0  0  0  0  0  0  0  0
   -2.6482   -0.2434   -0.6777 C   0  0  0  0  0  0  0  0  0  0  0  0
   -3.6772   -1.2045   -1.2426 C   0  0  0  0  0  0  0  0  0  0  0  0
   -2.8274    0.9908   -0.8510 O   0  0  0  0  0  0  0  0  0  0  0  0
    2.9830   -0.5791    3.4854 H   0  0  0  0  0  0  0  0  0  0  0  0
    3.4993   -1.2393    1.8343 H   0  0  0  0  0  0  0  0  0  0  0  0
    2.1730   -2.0299    2.8336 H   0  0  0  0  0  0  0  0  0  0  0  0
    1.8292    0.8110    1.9472 H   0  0  0  0  0  0  0  0  0  0  0  0
    0.4470    1.7378    1.0699 H   0  0  0  0  0  0  0  0  0  0  0  0
   -1.1269    1.9020    0.1186 H   0  0  0  0  0  0  0  0  0  0  0  0
   -1.5045   -1.8259    0.0917 H   0  0  0  0  0  0  0  0  0  0  0  0
   -3.2033   -2.1830   -1.3818 H   0  0  0  0  0  0  0  0  0  0  0  0
   -3.9781   -0.7745   -2.2023 H   0  0  0  0  0  0  0  0  0  0  0  0
   -4.4897   -1.2756   -0.4969 H   0  0  0  0  0  0  0  0  0  0  0  0
  1  2  1  0
  1 11  1  0
  1 12  1  0
  1 13  1  0
  2  3  1  0
  2 14  1  0
  3  4  2  0
  3  5  1  0
  5  6  2  3
  5  7  1  0
  6 15  1  0
  6 16  1  0
  7  8  1  0
  7 17  1  0
  8  9  1  0
  8 10  2  0
  9 18  1  0
  9 19  1  0
  9 20  1  0
M  END

> <RosettaParamsInstructions>
M  ROOT 7
M  POLY_N_BB 7
M  POLY_CA_BB 5
M  POLY_C_BB 3
M  POLY_O_BB 4
M  POLY_IGNORE 1 10 9 14 11 12 13 18 19 20
M  POLY_UPPER 2
M  POLY_LOWER 8
M  POLY_CHG 0
M  POLY_PROPERTIES PROTEIN POLYMER ALPHA_AA ALIPHATIC
M  END

$$$$
DHA_new
     RDKit          3D

 20 19  0  0  0  0  0  0  0  0999 V2000
    2.6449   -1.0830    2.5917 C   0  0  0  0  0  0  0  0  0  0  0  0
    1.6862   -0.2486    1.8797 N   0  0  0  0  0  0  0  0  0  0  0  0
    0.5416   -0.8266    1.3100 C   0  0  0  0  0  0  0  0  0  0  0  0
    0.3920   -2.0854    1.4463 O   0  0  0  0  0  0  0  0  0  0  0  0
   -0.4872   -0.0547    0.5681 C   0  0  0  0  0  0  0  0  0  0  0  0
   -0.3376    1.2368    0.4261 C   0  0  0  0  0  0  0  0  0  0  0  0
   -1.5716   -0.7451    0.0538 N   0  0  0  0  0  0  0  0  0  0  0  0
   -2.6416   -0.2263   -0.6673 C   0  0  0  0  0  0  0  0  0  0  0  0
   -3.7338   -1.1680   -1.1417 C   0  0  0  0  0  0  0  0  0  0  0  0
   -2.7993    0.9643   -0.9720 O   0  0  0  0  0  0  0  0  0  0  0  0
    2.4684   -2.1378    2.3113 H   0  0  0  0  0  0  0  0  0  0  0  0
    3.6525   -0.7993    2.2113 H   0  0  0  0  0  0  0  0  0  0  0  0
    2.6450   -0.8867    3.6657 H   0  0  0  0  0  0  0  0  0  0  0  0
    1.9363    0.7620    1.8467 H   0  0  0  0  0  0  0  0  0  0  0  0
   -1.0436    1.8558   -0.0990 H   0  0  0  0  0  0  0  0  0  0  0  0
    0.5431    1.7385    0.8543 H   0  0  0  0  0  0  0  0  0  0  0  0
   -1.5943   -1.8038    0.2289 H   0  0  0  0  0  0  0  0  0  0  0  0
   -3.6998   -2.0409   -0.4898 H   0  0  0  0  0  0  0  0  0  0  0  0
   -3.5269   -1.4756   -2.1722 H   0  0  0  0  0  0  0  0  0  0  0  0
   -4.6809   -0.6278   -1.1110 H   0  0  0  0  0  0  0  0  0  0  0  0
  1  2  1  0
  1 11  1  0
  1 12  1  0
  1 13  1  0
  2  3  1  0
  2 14  1  0
  3  4  2  0
  3  5  1  0
  5  6  2  3
  5  7  1  0
  6 15  1  0
  6 16  1  0
  7  8  1  0
  7 17  1  0
  8  9  1  0
  8 10  2  0
  9 18  1  0
  9 19  1  0
  9 20  1  0
M  END

> <RosettaParamsInstructions>
M  ROOT 7
M  POLY_N_BB 7
M  POLY_CA_BB 5
M  POLY_C_BB 3
M  POLY_O_BB 4
M  POLY_IGNORE 1 10 9 14 11 12 13 18 19 20
M  POLY_UPPER 2
M  POLY_LOWER 8
M  POLY_CHG 0
M  POLY_PROPERTIES PROTEIN POLYMER ALPHA_AA ALIPHATIC
M  END

$$$$
DHA_new
     RDKit          3D

 20 19  0  0  0  0  0  0  0  0999 V2000
    2.6765   -1.0625    2.5732 C   0  0  0  0  0  0  0  0  0  0  0  0
    1.6922   -0.2196    1.8594 N   0  0  0  0  0  0  0  0  0  0  0  0
    0.5666   -0.8183    1.3020 C   0  0  0  0  0  0  0  0  0  0  0  0
    0.4007   -2.0784    1.4139 O   0  0  0  0  0  0  0  0  0  0  0  0
   -0.4739   -0.0617    0.5697 C   0  0  0  0  0  0  0  0  0  0  0  0
   -0.3463    1.2364    0.4291 C   0  0  0  0  0  0  0  0  0  0  0  0
   -1.5796   -0.7578    0.0400 N   0  0  0  0  0  0  0  0  0  0  0  0
   -2.6430   -0.2213   -0.6692 C   0  0  0  0  0  0  0  0  0  0  0  0
   -3.7315   -1.1772   -1.1459 C   0  0  0  0  0  0  0  0  0  0  0  0
   -2.7880    0.9783   -0.9526 O   0  0  0  0  0  0  0  0  0  0  0  0
    2.2540   -1.4189    3.5332 H   0  0  0  0  0  0  0  0  0  0  0  0
    2.8539   -1.9566    1.9514 H   0  0  0  0  0  0  0  0  0  0  0  0
    3.5939   -0.5088    2.7852 H   0  0  0  0  0  0  0  0  0  0  0  0
    1.8951    0.7918    1.8103 H   0  0  0  0  0  0  0  0  0  0  0  0
   -1.0705    1.8420   -0.0937 H   0  0  0  0  0  0  0  0  0  0  0  0
    0.5373    1.7207    0.8642 H   0  0  0  0  0  0  0  0  0  0  0  0
   -1.5623   -1.8169    0.2255 H   0  0  0  0  0  0  0  0  0  0  0  0
   -4.6680   -0.6231   -1.2204 H   0  0  0  0  0  0  0  0  0  0  0  0
   -3.4032   -1.5350   -2.1422 H   0  0  0  0  0  0  0  0  0  0  0  0
   -3.8101   -1.9653   -0.3921 H   0  0  0  0  0  0  0  0  0  0  0  0
  1  2  1  0
  1 11  1  0
  1 12  1  0
  1 13  1  0
  2  3  1  0
  2 14  1  0
  3  4  2  0
  3  5  1  0
  5  6  2  3
  5  7  1  0
  6 15  1  0
  6 16  1  0
  7  8  1  0
  7 17  1  0
  8  9  1  0
  8 10  2  0
  9 18  1  0
  9 19  1  0
  9 20  1  0
M  END

> <RosettaParamsInstructions>
M  ROOT 7
M  POLY_N_BB 7
M  POLY_CA_BB 5
M  POLY_C_BB 3
M  POLY_O_BB 4
M  POLY_IGNORE 1 10 9 14 11 12 13 18 19 20
M  POLY_UPPER 2
M  POLY_LOWER 8
M  POLY_CHG 0
M  POLY_PROPERTIES PROTEIN POLYMER ALPHA_AA ALIPHATIC
M  END

$$$$
DHA_new
     RDKit          3D

 20 19  0  0  0  0  0  0  0  0999 V2000
    2.7072   -1.0554    2.5862 C   0  0  0  0  0  0  0  0  0  0  0  0
    1.6995   -0.2553    1.8671 N   0  0  0  0  0  0  0  0  0  0  0  0
    0.5617   -0.8581    1.3107 C   0  0  0  0  0  0  0  0  0  0  0  0
    0.4165   -2.1055    1.4375 O   0  0  0  0  0  0  0  0  0  0  0  0
   -0.4735   -0.0944    0.5829 C   0  0  0  0  0  0  0  0  0  0  0  0
   -0.3328    1.1920    0.4471 C   0  0  0  0  0  0  0  0  0  0  0  0
   -1.5918   -0.7840    0.0515 N   0  0  0  0  0  0  0  0  0  0  0  0
   -2.6586   -0.2483   -0.6571 C   0  0  0  0  0  0  0  0  0  0  0  0
   -3.7734   -1.1135   -1.1582 C   0  0  0  0  0  0  0  0  0  0  0  0
   -2.7784    0.9619   -0.9300 O   0  0  0  0  0  0  0  0  0  0  0  0
    2.2118   -1.9632    3.0092 H   0  0  0  0  0  0  0  0  0  0  0  0
    3.4985   -1.2854    1.8576 H   0  0  0  0  0  0  0  0  0  0  0  0
    3.1023   -0.4622    3.4356 H   0  0  0  0  0  0  0  0  0  0  0  0
    1.9262    0.7516    1.8269 H   0  0  0  0  0  0  0  0  0  0  0  0
    0.5449    1.6966    0.8696 H   0  0  0  0  0  0  0  0  0  0  0  0
   -0.9977    1.8797   -0.0538 H   0  0  0  0  0  0  0  0  0  0  0  0
   -1.5837   -1.8315    0.2330 H   0  0  0  0  0  0  0  0  0  0  0  0
   -3.4339   -1.4722   -2.1722 H   0  0  0  0  0  0  0  0  0  0  0  0
   -4.7254   -0.5868   -1.2562 H   0  0  0  0  0  0  0  0  0  0  0  0
   -3.9256   -2.0182   -0.5465 H   0  0  0  0  0  0  0  0  0  0  0  0
  1  2  1  0
  1 11  1  0
  1 12  1  0
  1 13  1  0
  2  3  1  0
  2 14  1  0
  3  4  2  0
  3  5  1  0
  5  6  2  3
  5  7  1  0
  6 15  1  0
  6 16  1  0
  7  8  1  0
  7 17  1  0
  8  9  1  0
  8 10  2  0
  9 18  1  0
  9 19  1  0
  9 20  1  0
M  END

> <RosettaParamsInstructions>
M  ROOT 7
M  POLY_N_BB 7
M  POLY_CA_BB 5
M  POLY_C_BB 3
M  POLY_O_BB 4
M  POLY_IGNORE 1 10 9 14 11 12 13 18 19 20
M  POLY_UPPER 2
M  POLY_LOWER 8
M  POLY_CHG 0
M  POLY_PROPERTIES PROTEIN POLYMER ALPHA_AA ALIPHATIC
M  END

$$$$
DHA_new
     RDKit          3D

 20 19  0  0  0  0  0  0  0  0999 V2000
    2.6865   -1.0548    2.5987 C   0  0  0  0  0  0  0  0  0  0  0  0
    1.6750   -0.2539    1.9086 N   0  0  0  0  0  0  0  0  0  0  0  0
    0.5534   -0.8497    1.3024 C   0  0  0  0  0  0  0  0  0  0  0  0
    0.4394   -2.1123    1.3696 O   0  0  0  0  0  0  0  0  0  0  0  0
   -0.4779   -0.0522    0.6008 C   0  0  0  0  0  0  0  0  0  0  0  0
   -0.3778    1.2381    0.5223 C   0  0  0  0  0  0  0  0  0  0  0  0
   -1.5602   -0.7625    0.0304 N   0  0  0  0  0  0  0  0  0  0  0  0
   -2.6433   -0.2424   -0.6724 C   0  0  0  0  0  0  0  0  0  0  0  0
   -3.7084   -1.1729   -1.2090 C   0  0  0  0  0  0  0  0  0  0  0  0
   -2.7979    0.9629   -0.8940 O   0  0  0  0  0  0  0  0  0  0  0  0
    2.2721   -1.4148    3.5461 H   0  0  0  0  0  0  0  0  0  0  0  0
    3.6060   -0.4647    2.7504 H   0  0  0  0  0  0  0  0  0  0  0  0
    2.9446   -1.9025    1.9337 H   0  0  0  0  0  0  0  0  0  0  0  0
    1.8027    0.7708    1.8750 H   0  0  0  0  0  0  0  0  0  0  0  0
   -1.0840    1.8578    0.0340 H   0  0  0  0  0  0  0  0  0  0  0  0
    0.4651    1.8035    0.9652 H   0  0  0  0  0  0  0  0  0  0  0  0
   -1.5678   -1.8423    0.1415 H   0  0  0  0  0  0  0  0  0  0  0  0
   -4.6045   -1.1521   -0.5794 H   0  0  0  0  0  0  0  0  0  0  0  0
   -3.2847   -2.2127   -1.2581 H   0  0  0  0  0  0  0  0  0  0  0  0
   -3.9449   -0.7953   -2.2249 H   0  0  0  0  0  0  0  0  0  0  0  0
  1  2  1  0
  1 11  1  0
  1 12  1  0
  1 13  1  0
  2  3  1  0
  2 14  1  0
  3  4  2  0
  3  5  1  0
  5  6  2  3
  5  7  1  0
  6 15  1  0
  6 16  1  0
  7  8  1  0
  7 17  1  0
  8  9  1  0
  8 10  2  0
  9 18  1  0
  9 19  1  0
  9 20  1  0
M  END

> <RosettaParamsInstructions>
M  ROOT 7
M  POLY_N_BB 7
M  POLY_CA_BB 5
M  POLY_C_BB 3
M  POLY_O_BB 4
M  POLY_IGNORE 1 10 9 14 11 12 13 18 19 20
M  POLY_UPPER 2
M  POLY_LOWER 8
M  POLY_CHG 0
M  POLY_PROPERTIES PROTEIN POLYMER ALPHA_AA ALIPHATIC
M  END

$$$$
DHA_new
     RDKit          3D

 20 19  0  0  0  0  0  0  0  0999 V2000
    2.6423   -1.0644    2.5835 C   0  0  0  0  0  0  0  0  0  0  0  0
    1.6690   -0.2046    1.8642 N   0  0  0  0  0  0  0  0  0  0  0  0
    0.5619   -0.8381    1.3170 C   0  0  0  0  0  0  0  0  0  0  0  0
    0.4125   -2.0736    1.4364 O   0  0  0  0  0  0  0  0  0  0  0  0
   -0.4557   -0.0742    0.5876 C   0  0  0  0  0  0  0  0  0  0  0  0
   -0.3521    1.2195    0.4312 C   0  0  0  0  0  0  0  0  0  0  0  0
   -1.5565   -0.7840    0.0569 N   0  0  0  0  0  0  0  0  0  0  0  0
   -2.6112   -0.2316   -0.6588 C   0  0  0  0  0  0  0  0  0  0  0  0
   -3.7122   -1.1539   -1.1536 C   0  0  0  0  0  0  0  0  0  0  0  0
   -2.7539    0.9670   -0.9446 O   0  0  0  0  0  0  0  0  0  0  0  0
    3.6738   -0.6438    2.4450 H   0  0  0  0  0  0  0  0  0  0  0  0
    2.3605   -1.1738    3.6300 H   0  0  0  0  0  0  0  0  0  0  0  0
    2.6515   -2.0631    2.1030 H   0  0  0  0  0  0  0  0  0  0  0  0
    1.8472    0.8097    1.7988 H   0  0  0  0  0  0  0  0  0  0  0  0
   -1.0470    1.8572   -0.0863 H   0  0  0  0  0  0  0  0  0  0  0  0
    0.5140    1.7763    0.8491 H   0  0  0  0  0  0  0  0  0  0  0  0
   -1.5876   -1.8596    0.2194 H   0  0  0  0  0  0  0  0  0  0  0  0
   -3.2268   -2.1326   -1.3182 H   0  0  0  0  0  0  0  0  0  0  0  0
   -4.1444   -0.7265   -2.0583 H   0  0  0  0  0  0  0  0  0  0  0  0
   -4.4919   -1.2581   -0.3613 H   0  0  0  0  0  0  0  0  0  0  0  0
  1  2  1  0
  1 11  1  0
  1 12  1  0
  1 13  1  0
  2  3  1  0
  2 14  1  0
  3  4  2  0
  3  5  1  0
  5  6  2  3
  5  7  1  0
  6 15  1  0
  6 16  1  0
  7  8  1  0
  7 17  1  0
  8  9  1  0
  8 10  2  0
  9 18  1  0
  9 19  1  0
  9 20  1  0
M  END

> <RosettaParamsInstructions>
M  ROOT 7
M  POLY_N_BB 7
M  POLY_CA_BB 5
M  POLY_C_BB 3
M  POLY_O_BB 4
M  POLY_IGNORE 1 10 9 14 11 12 13 18 19 20
M  POLY_UPPER 2
M  POLY_LOWER 8
M  POLY_CHG 0
M  POLY_PROPERTIES PROTEIN POLYMER ALPHA_AA ALIPHATIC
M  END

$$$$
DHA_new
     RDKit          3D

 20 19  0  0  0  0  0  0  0  0999 V2000
    2.6877   -1.0789    2.4912 C   0  0  0  0  0  0  0  0  0  0  0  0
    1.6683   -0.2276    1.8442 N   0  0  0  0  0  0  0  0  0  0  0  0
    0.5610   -0.8431    1.2645 C   0  0  0  0  0  0  0  0  0  0  0  0
    0.4732   -2.1078    1.3156 O   0  0  0  0  0  0  0  0  0  0  0  0
   -0.4821   -0.0606    0.6096 C   0  0  0  0  0  0  0  0  0  0  0  0
   -0.3731    1.2377    0.5679 C   0  0  0  0  0  0  0  0  0  0  0  0
   -1.5790   -0.7682    0.0431 N   0  0  0  0  0  0  0  0  0  0  0  0
   -2.6704   -0.1912   -0.6227 C   0  0  0  0  0  0  0  0  0  0  0  0
   -3.7173   -1.1552   -1.1404 C   0  0  0  0  0  0  0  0  0  0  0  0
   -2.8907    1.0016   -0.8430 O   0  0  0  0  0  0  0  0  0  0  0  0
    3.1149   -0.5387    3.3456 H   0  0  0  0  0  0  0  0  0  0  0  0
    2.1835   -2.0134    2.7874 H   0  0  0  0  0  0  0  0  0  0  0  0
    3.4970   -1.2720    1.7559 H   0  0  0  0  0  0  0  0  0  0  0  0
    1.8863    0.7888    1.8858 H   0  0  0  0  0  0  0  0  0  0  0  0
    0.4702    1.7425    1.0066 H   0  0  0  0  0  0  0  0  0  0  0  0
   -1.0966    1.8708    0.1065 H   0  0  0  0  0  0  0  0  0  0  0  0
   -1.5203   -1.8369    0.1618 H   0  0  0  0  0  0  0  0  0  0  0  0
   -3.8271   -1.9380   -0.3789 H   0  0  0  0  0  0  0  0  0  0  0  0
   -4.6584   -0.6420   -1.3806 H   0  0  0  0  0  0  0  0  0  0  0  0
   -3.3335   -1.6200   -2.0792 H   0  0  0  0  0  0  0  0  0  0  0  0
  1  2  1  0
  1 11  1  0
  1 12  1  0
  1 13  1  0
  2  3  1  0
  2 14  1  0
  3  4  2  0
  3  5  1  0
  5  6  2  3
  5  7  1  0
  6 15  1  0
  6 16  1  0
  7  8  1  0
  7 17  1  0
  8  9  1  0
  8 10  2  0
  9 18  1  0
  9 19  1  0
  9 20  1  0
M  END

> <RosettaParamsInstructions>
M  ROOT 7
M  POLY_N_BB 7
M  POLY_CA_BB 5
M  POLY_C_BB 3
M  POLY_O_BB 4
M  POLY_IGNORE 1 10 9 14 11 12 13 18 19 20
M  POLY_UPPER 2
M  POLY_LOWER 8
M  POLY_CHG 0
M  POLY_PROPERTIES PROTEIN POLYMER ALPHA_AA ALIPHATIC
M  END

$$$$
DHA_new
     RDKit          3D

 20 19  0  0  0  0  0  0  0  0999 V2000
    2.6822   -1.0755    2.5813 C   0  0  0  0  0  0  0  0  0  0  0  0
    1.6856   -0.2547    1.8635 N   0  0  0  0  0  0  0  0  0  0  0  0
    0.5452   -0.8396    1.2886 C   0  0  0  0  0  0  0  0  0  0  0  0
    0.4027   -2.0817    1.4059 O   0  0  0  0  0  0  0  0  0  0  0  0
   -0.4630   -0.0864    0.5748 C   0  0  0  0  0  0  0  0  0  0  0  0
   -0.3455    1.1958    0.4364 C   0  0  0  0  0  0  0  0  0  0  0  0
   -1.5568   -0.8050    0.0490 N   0  0  0  0  0  0  0  0  0  0  0  0
   -2.6167   -0.2274   -0.6667 C   0  0  0  0  0  0  0  0  0  0  0  0
   -3.7174   -1.1560   -1.1627 C   0  0  0  0  0  0  0  0  0  0  0  0
   -2.7727    0.9828   -0.9541 O   0  0  0  0  0  0  0  0  0  0  0  0
    2.1815   -1.9646    3.0224 H   0  0  0  0  0  0  0  0  0  0  0  0
    3.4906   -1.3066    1.8900 H   0  0  0  0  0  0  0  0  0  0  0  0
    3.0646   -0.4745    3.4086 H   0  0  0  0  0  0  0  0  0  0  0  0
    1.8770    0.7667    1.8106 H   0  0  0  0  0  0  0  0  0  0  0  0
    0.5222    1.7410    0.8575 H   0  0  0  0  0  0  0  0  0  0  0  0
   -1.0238    1.8564   -0.0688 H   0  0  0  0  0  0  0  0  0  0  0  0
   -1.6182   -1.8625    0.1841 H   0  0  0  0  0  0  0  0  0  0  0  0
   -3.7314   -1.0914   -2.2641 H   0  0  0  0  0  0  0  0  0  0  0  0
   -4.6612   -0.7885   -0.6958 H   0  0  0  0  0  0  0  0  0  0  0  0
   -3.5514   -2.1806   -0.8196 H   0  0  0  0  0  0  0  0  0  0  0  0
  1  2  1  0
  1 11  1  0
  1 12  1  0
  1 13  1  0
  2  3  1  0
  2 14  1  0
  3  4  2  0
  3  5  1  0
  5  6  2  3
  5  7  1  0
  6 15  1  0
  6 16  1  0
  7  8  1  0
  7 17  1  0
  8  9  1  0
  8 10  2  0
  9 18  1  0
  9 19  1  0
  9 20  1  0
M  END

> <RosettaParamsInstructions>
M  ROOT 7
M  POLY_N_BB 7
M  POLY_CA_BB 5
M  POLY_C_BB 3
M  POLY_O_BB 4
M  POLY_IGNORE 1 10 9 14 11 12 13 18 19 20
M  POLY_UPPER 2
M  POLY_LOWER 8
M  POLY_CHG 0
M  POLY_PROPERTIES PROTEIN POLYMER ALPHA_AA ALIPHATIC
M  END

$$$$
DHA_new
     RDKit          3D

 20 19  0  0  0  0  0  0  0  0999 V2000
    2.6796   -1.0588    2.5928 C   0  0  0  0  0  0  0  0  0  0  0  0
    1.7028   -0.2457    1.8402 N   0  0  0  0  0  0  0  0  0  0  0  0
    0.5561   -0.8349    1.3129 C   0  0  0  0  0  0  0  0  0  0  0  0
    0.3507   -2.0981    1.4856 O   0  0  0  0  0  0  0  0  0  0  0  0
   -0.4505   -0.0773    0.5558 C   0  0  0  0  0  0  0  0  0  0  0  0
   -0.2735    1.1980    0.3638 C   0  0  0  0  0  0  0  0  0  0  0  0
   -1.5876   -0.7415    0.0514 N   0  0  0  0  0  0  0  0  0  0  0  0
   -2.6461   -0.2246   -0.6801 C   0  0  0  0  0  0  0  0  0  0  0  0
   -3.7526   -1.1494   -1.1066 C   0  0  0  0  0  0  0  0  0  0  0  0
   -2.7542    0.9744   -1.0194 O   0  0  0  0  0  0  0  0  0  0  0  0
    3.6791   -1.0106    2.0905 H   0  0  0  0  0  0  0  0  0  0  0  0
    2.3007   -2.0995    2.6484 H   0  0  0  0  0  0  0  0  0  0  0  0
    2.7788   -0.6531    3.6215 H   0  0  0  0  0  0  0  0  0  0  0  0
    1.9243    0.7497    1.7385 H   0  0  0  0  0  0  0  0  0  0  0  0
   -0.9609    1.8405   -0.1820 H   0  0  0  0  0  0  0  0  0  0  0  0
    0.6123    1.6812    0.7647 H   0  0  0  0  0  0  0  0  0  0  0  0
   -1.6221   -1.7860    0.2725 H   0  0  0  0  0  0  0  0  0  0  0  0
   -4.6779   -0.8436   -0.5703 H   0  0  0  0  0  0  0  0  0  0  0  0
   -3.5002   -2.1939   -0.8635 H   0  0  0  0  0  0  0  0  0  0  0  0
   -3.9650   -1.0792   -2.1757 H   0  0  0  0  0  0  0  0  0  0  0  0
  1  2  1  0
  1 11  1  0
  1 12  1  0
  1 13  1  0
  2  3  1  0
  2 14  1  0
  3  4  2  0
  3  5  1  0
  5  6  2  3
  5  7  1  0
  6 15  1  0
  6 16  1  0
  7  8  1  0
  7 17  1  0
  8  9  1  0
  8 10  2  0
  9 18  1  0
  9 19  1  0
  9 20  1  0
M  END

> <RosettaParamsInstructions>
M  ROOT 7
M  POLY_N_BB 7
M  POLY_CA_BB 5
M  POLY_C_BB 3
M  POLY_O_BB 4
M  POLY_IGNORE 1 10 9 14 11 12 13 18 19 20
M  POLY_UPPER 2
M  POLY_LOWER 8
M  POLY_CHG 0
M  POLY_PROPERTIES PROTEIN POLYMER ALPHA_AA ALIPHATIC
M  END

$$$$
DHA_new
     RDKit          3D

 20 19  0  0  0  0  0  0  0  0999 V2000
    2.7113   -1.0595    2.4961 C   0  0  0  0  0  0  0  0  0  0  0  0
    1.6972   -0.2114    1.8535 N   0  0  0  0  0  0  0  0  0  0  0  0
    0.5903   -0.8286    1.2683 C   0  0  0  0  0  0  0  0  0  0  0  0
    0.4853   -2.0802    1.3028 O   0  0  0  0  0  0  0  0  0  0  0  0
   -0.4658   -0.0760    0.6090 C   0  0  0  0  0  0  0  0  0  0  0  0
   -0.3517    1.2384    0.5751 C   0  0  0  0  0  0  0  0  0  0  0  0
   -1.5655   -0.7881    0.0351 N   0  0  0  0  0  0  0  0  0  0  0  0
   -2.6655   -0.2571   -0.6325 C   0  0  0  0  0  0  0  0  0  0  0  0
   -3.7442   -1.1484   -1.1809 C   0  0  0  0  0  0  0  0  0  0  0  0
   -2.8351    0.9649   -0.8213 O   0  0  0  0  0  0  0  0  0  0  0  0
    2.7088   -2.0547    2.0027 H   0  0  0  0  0  0  0  0  0  0  0  0
    3.7037   -0.5993    2.4233 H   0  0  0  0  0  0  0  0  0  0  0  0
    2.4030   -1.1687    3.5563 H   0  0  0  0  0  0  0  0  0  0  0  0
    1.8968    0.7994    1.8913 H   0  0  0  0  0  0  0  0  0  0  0  0
    0.4945    1.7431    1.0200 H   0  0  0  0  0  0  0  0  0  0  0  0
   -1.0907    1.9017    0.1034 H   0  0  0  0  0  0  0  0  0  0  0  0
   -1.5068   -1.8522    0.1488 H   0  0  0  0  0  0  0  0  0  0  0  0
   -3.8357   -2.0681   -0.5534 H   0  0  0  0  0  0  0  0  0  0  0  0
   -4.7140   -0.6353   -1.1445 H   0  0  0  0  0  0  0  0  0  0  0  0
   -3.5223   -1.4722   -2.2121 H   0  0  0  0  0  0  0  0  0  0  0  0
  1  2  1  0
  1 11  1  0
  1 12  1  0
  1 13  1  0
  2  3  1  0
  2 14  1  0
  3  4  2  0
  3  5  1  0
  5  6  2  3
  5  7  1  0
  6 15  1  0
  6 16  1  0
  7  8  1  0
  7 17  1  0
  8  9  1  0
  8 10  2  0
  9 18  1  0
  9 19  1  0
  9 20  1  0
M  END

> <RosettaParamsInstructions>
M  ROOT 7
M  POLY_N_BB 7
M  POLY_CA_BB 5
M  POLY_C_BB 3
M  POLY_O_BB 4
M  POLY_IGNORE 1 10 9 14 11 12 13 18 19 20
M  POLY_UPPER 2
M  POLY_LOWER 8
M  POLY_CHG 0
M  POLY_PROPERTIES PROTEIN POLYMER ALPHA_AA ALIPHATIC
M  END

$$$$
DHA_new
     RDKit          3D

 20 19  0  0  0  0  0  0  0  0999 V2000
    2.6766   -1.0695    2.5717 C   0  0  0  0  0  0  0  0  0  0  0  0
    1.7231   -0.2075    1.8737 N   0  0  0  0  0  0  0  0  0  0  0  0
    0.5864   -0.7937    1.3034 C   0  0  0  0  0  0  0  0  0  0  0  0
    0.4185   -2.0566    1.4102 O   0  0  0  0  0  0  0  0  0  0  0  0
   -0.4626   -0.0558    0.5695 C   0  0  0  0  0  0  0  0  0  0  0  0
   -0.3339    1.2434    0.4339 C   0  0  0  0  0  0  0  0  0  0  0  0
   -1.5697   -0.7409    0.0327 N   0  0  0  0  0  0  0  0  0  0  0  0
   -2.6534   -0.2260   -0.6853 C   0  0  0  0  0  0  0  0  0  0  0  0
   -3.7299   -1.1699   -1.1623 C   0  0  0  0  0  0  0  0  0  0  0  0
   -2.7944    0.9795   -0.9636 O   0  0  0  0  0  0  0  0  0  0  0  0
    2.0933   -1.8659    3.0839 H   0  0  0  0  0  0  0  0  0  0  0  0
    3.3489   -1.5350    1.8424 H   0  0  0  0  0  0  0  0  0  0  0  0
    3.2169   -0.5114    3.3486 H   0  0  0  0  0  0  0  0  0  0  0  0
    1.9616    0.7957    1.8503 H   0  0  0  0  0  0  0  0  0  0  0  0
   -1.0445    1.8561   -0.0816 H   0  0  0  0  0  0  0  0  0  0  0  0
    0.5506    1.7373    0.8714 H   0  0  0  0  0  0  0  0  0  0  0  0
   -1.5667   -1.8013    0.2067 H   0  0  0  0  0  0  0  0  0  0  0  0
   -4.6819   -0.6160   -1.2281 H   0  0  0  0  0  0  0  0  0  0  0  0
   -3.4548   -1.6311   -2.1134 H   0  0  0  0  0  0  0  0  0  0  0  0
   -3.8908   -1.9838   -0.4234 H   0  0  0  0  0  0  0  0  0  0  0  0
  1  2  1  0
  1 11  1  0
  1 12  1  0
  1 13  1  0
  2  3  1  0
  2 14  1  0
  3  4  2  0
  3  5  1  0
  5  6  2  3
  5  7  1  0
  6 15  1  0
  6 16  1  0
  7  8  1  0
  7 17  1  0
  8  9  1  0
  8 10  2  0
  9 18  1  0
  9 19  1  0
  9 20  1  0
M  END

> <RosettaParamsInstructions>
M  ROOT 7
M  POLY_N_BB 7
M  POLY_CA_BB 5
M  POLY_C_BB 3
M  POLY_O_BB 4
M  POLY_IGNORE 1 10 9 14 11 12 13 18 19 20
M  POLY_UPPER 2
M  POLY_LOWER 8
M  POLY_CHG 0
M  POLY_PROPERTIES PROTEIN POLYMER ALPHA_AA ALIPHATIC
M  END

$$$$
DHA_new
     RDKit          3D

 20 19  0  0  0  0  0  0  0  0999 V2000
    2.6468   -1.0774    2.5790 C   0  0  0  0  0  0  0  0  0  0  0  0
    1.6916   -0.2336    1.8453 N   0  0  0  0  0  0  0  0  0  0  0  0
    0.5517   -0.8504    1.3159 C   0  0  0  0  0  0  0  0  0  0  0  0
    0.3424   -2.0948    1.4599 O   0  0  0  0  0  0  0  0  0  0  0  0
   -0.4584   -0.0588    0.5615 C   0  0  0  0  0  0  0  0  0  0  0  0
   -0.2827    1.2236    0.3898 C   0  0  0  0  0  0  0  0  0  0  0  0
   -1.5802   -0.7291    0.0540 N   0  0  0  0  0  0  0  0  0  0  0  0
   -2.6443   -0.2200   -0.6715 C   0  0  0  0  0  0  0  0  0  0  0  0
   -3.7497   -1.1679   -1.1102 C   0  0  0  0  0  0  0  0  0  0  0  0
   -2.7629    0.9642   -0.9928 O   0  0  0  0  0  0  0  0  0  0  0  0
    2.2812   -2.1081    2.6799 H   0  0  0  0  0  0  0  0  0  0  0  0
    2.8141   -0.6176    3.5748 H   0  0  0  0  0  0  0  0  0  0  0  0
    3.6149   -1.1105    2.0468 H   0  0  0  0  0  0  0  0  0  0  0  0
    1.8914    0.7572    1.7498 H   0  0  0  0  0  0  0  0  0  0  0  0
   -0.9985    1.8086   -0.1500 H   0  0  0  0  0  0  0  0  0  0  0  0
    0.5808    1.7742    0.7730 H   0  0  0  0  0  0  0  0  0  0  0  0
   -1.6137   -1.7850    0.2598 H   0  0  0  0  0  0  0  0  0  0  0  0
   -4.6842   -0.5920   -1.2436 H   0  0  0  0  0  0  0  0  0  0  0  0
   -3.8309   -1.9199   -0.3204 H   0  0  0  0  0  0  0  0  0  0  0  0
   -3.4159   -1.6148   -2.0601 H   0  0  0  0  0  0  0  0  0  0  0  0
  1  2  1  0
  1 11  1  0
  1 12  1  0
  1 13  1  0
  2  3  1  0
  2 14  1  0
  3  4  2  0
  3  5  1  0
  5  6  2  3
  5  7  1  0
  6 15  1  0
  6 16  1  0
  7  8  1  0
  7 17  1  0
  8  9  1  0
  8 10  2  0
  9 18  1  0
  9 19  1  0
  9 20  1  0
M  END

> <RosettaParamsInstructions>
M  ROOT 7
M  POLY_N_BB 7
M  POLY_CA_BB 5
M  POLY_C_BB 3
M  POLY_O_BB 4
M  POLY_IGNORE 1 10 9 14 11 12 13 18 19 20
M  POLY_UPPER 2
M  POLY_LOWER 8
M  POLY_CHG 0
M  POLY_PROPERTIES PROTEIN POLYMER ALPHA_AA ALIPHATIC
M  END

$$$$
DHA_new
     RDKit          3D

 20 19  0  0  0  0  0  0  0  0999 V2000
    2.6578   -1.0207    2.6596 C   0  0  0  0  0  0  0  0  0  0  0  0
    1.6663   -0.2416    1.9134 N   0  0  0  0  0  0  0  0  0  0  0  0
    0.5546   -0.8278    1.3294 C   0  0  0  0  0  0  0  0  0  0  0  0
    0.3949   -2.0683    1.4457 O   0  0  0  0  0  0  0  0  0  0  0  0
   -0.4582   -0.0914    0.5775 C   0  0  0  0  0  0  0  0  0  0  0  0
   -0.2990    1.1957    0.4528 C   0  0  0  0  0  0  0  0  0  0  0  0
   -1.5698   -0.7978    0.0144 N   0  0  0  0  0  0  0  0  0  0  0  0
   -2.6218   -0.2626   -0.7269 C   0  0  0  0  0  0  0  0  0  0  0  0
   -3.7273   -1.1598   -1.2532 C   0  0  0  0  0  0  0  0  0  0  0  0
   -2.7441    0.9324   -1.0091 O   0  0  0  0  0  0  0  0  0  0  0  0
    2.4127   -0.9378    3.7378 H   0  0  0  0  0  0  0  0  0  0  0  0
    3.6641   -0.6243    2.4987 H   0  0  0  0  0  0  0  0  0  0  0  0
    2.6081   -2.0765    2.3561 H   0  0  0  0  0  0  0  0  0  0  0  0
    1.8594    0.7649    1.8582 H   0  0  0  0  0  0  0  0  0  0  0  0
    0.5339    1.7175    0.8761 H   0  0  0  0  0  0  0  0  0  0  0  0
   -1.0006    1.7921   -0.0829 H   0  0  0  0  0  0  0  0  0  0  0  0
   -1.5706   -1.8656    0.1987 H   0  0  0  0  0  0  0  0  0  0  0  0
   -3.5655   -1.3397   -2.3200 H   0  0  0  0  0  0  0  0  0  0  0  0
   -3.7260   -2.1100   -0.7074 H   0  0  0  0  0  0  0  0  0  0  0  0
   -4.6754   -0.6310   -1.0783 H   0  0  0  0  0  0  0  0  0  0  0  0
  1  2  1  0
  1 11  1  0
  1 12  1  0
  1 13  1  0
  2  3  1  0
  2 14  1  0
  3  4  2  0
  3  5  1  0
  5  6  2  3
  5  7  1  0
  6 15  1  0
  6 16  1  0
  7  8  1  0
  7 17  1  0
  8  9  1  0
  8 10  2  0
  9 18  1  0
  9 19  1  0
  9 20  1  0
M  END

> <RosettaParamsInstructions>
M  ROOT 7
M  POLY_N_BB 7
M  POLY_CA_BB 5
M  POLY_C_BB 3
M  POLY_O_BB 4
M  POLY_IGNORE 1 10 9 14 11 12 13 18 19 20
M  POLY_UPPER 2
M  POLY_LOWER 8
M  POLY_CHG 0
M  POLY_PROPERTIES PROTEIN POLYMER ALPHA_AA ALIPHATIC
M  END

$$$$
DHA_new
     RDKit          3D

 20 19  0  0  0  0  0  0  0  0999 V2000
    2.6386   -1.0483    2.5657 C   0  0  0  0  0  0  0  0  0  0  0  0
    1.6618   -0.2223    1.8330 N   0  0  0  0  0  0  0  0  0  0  0  0
    0.5480   -0.8245    1.3102 C   0  0  0  0  0  0  0  0  0  0  0  0
    0.3725   -2.0788    1.4625 O   0  0  0  0  0  0  0  0  0  0  0  0
   -0.4792   -0.0667    0.5622 C   0  0  0  0  0  0  0  0  0  0  0  0
   -0.2923    1.2170    0.4105 C   0  0  0  0  0  0  0  0  0  0  0  0
   -1.5935   -0.7739    0.0604 N   0  0  0  0  0  0  0  0  0  0  0  0
   -2.6323   -0.2342   -0.6501 C   0  0  0  0  0  0  0  0  0  0  0  0
   -3.7479   -1.1556   -1.1094 C   0  0  0  0  0  0  0  0  0  0  0  0
   -2.7504    0.9570   -0.9596 O   0  0  0  0  0  0  0  0  0  0  0  0
    2.2007   -2.0291    2.8226 H   0  0  0  0  0  0  0  0  0  0  0  0
    2.9548   -0.5420    3.4836 H   0  0  0  0  0  0  0  0  0  0  0  0
    3.5349   -1.2324    1.9512 H   0  0  0  0  0  0  0  0  0  0  0  0
    1.8951    0.7687    1.7675 H   0  0  0  0  0  0  0  0  0  0  0  0
    0.5942    1.7245    0.8210 H   0  0  0  0  0  0  0  0  0  0  0  0
   -1.0058    1.8155   -0.1236 H   0  0  0  0  0  0  0  0  0  0  0  0
   -1.6142   -1.8276    0.2617 H   0  0  0  0  0  0  0  0  0  0  0  0
   -4.6737   -0.5881   -1.1814 H   0  0  0  0  0  0  0  0  0  0  0  0
   -3.7965   -1.9975   -0.4200 H   0  0  0  0  0  0  0  0  0  0  0  0
   -3.4212   -1.5140   -2.1273 H   0  0  0  0  0  0  0  0  0  0  0  0
  1  2  1  0
  1 11  1  0
  1 12  1  0
  1 13  1  0
  2  3  1  0
  2 14  1  0
  3  4  2  0
  3  5  1  0
  5  6  2  3
  5  7  1  0
  6 15  1  0
  6 16  1  0
  7  8  1  0
  7 17  1  0
  8  9  1  0
  8 10  2  0
  9 18  1  0
  9 19  1  0
  9 20  1  0
M  END

> <RosettaParamsInstructions>
M  ROOT 7
M  POLY_N_BB 7
M  POLY_CA_BB 5
M  POLY_C_BB 3
M  POLY_O_BB 4
M  POLY_IGNORE 1 10 9 14 11 12 13 18 19 20
M  POLY_UPPER 2
M  POLY_LOWER 8
M  POLY_CHG 0
M  POLY_PROPERTIES PROTEIN POLYMER ALPHA_AA ALIPHATIC
M  END

$$$$
DHA_new
     RDKit          3D

 20 19  0  0  0  0  0  0  0  0999 V2000
    2.6044   -1.0285    2.6447 C   0  0  0  0  0  0  0  0  0  0  0  0
    1.6811   -0.1802    1.8530 N   0  0  0  0  0  0  0  0  0  0  0  0
    0.5518   -0.8103    1.3524 C   0  0  0  0  0  0  0  0  0  0  0  0
    0.3214   -2.0268    1.5554 O   0  0  0  0  0  0  0  0  0  0  0  0
   -0.4480   -0.0717    0.5455 C   0  0  0  0  0  0  0  0  0  0  0  0
   -0.2216    1.2001    0.3245 C   0  0  0  0  0  0  0  0  0  0  0  0
   -1.5794   -0.7867    0.0677 N   0  0  0  0  0  0  0  0  0  0  0  0
   -2.6035   -0.2642   -0.6930 C   0  0  0  0  0  0  0  0  0  0  0  0
   -3.7398   -1.1808   -1.1172 C   0  0  0  0  0  0  0  0  0  0  0  0
   -2.6747    0.9174   -1.0671 O   0  0  0  0  0  0  0  0  0  0  0  0
    2.0502   -1.2472    3.5785 H   0  0  0  0  0  0  0  0  0  0  0  0
    2.6996   -1.9652    2.0776 H   0  0  0  0  0  0  0  0  0  0  0  0
    3.5724   -0.5560    2.7805 H   0  0  0  0  0  0  0  0  0  0  0  0
    1.9600    0.8003    1.7452 H   0  0  0  0  0  0  0  0  0  0  0  0
    0.6732    1.7100    0.7182 H   0  0  0  0  0  0  0  0  0  0  0  0
   -0.9176    1.7809   -0.2559 H   0  0  0  0  0  0  0  0  0  0  0  0
   -1.6524   -1.8278    0.3159 H   0  0  0  0  0  0  0  0  0  0  0  0
   -3.9744   -0.9004   -2.1534 H   0  0  0  0  0  0  0  0  0  0  0  0
   -3.3562   -2.2105   -1.1307 H   0  0  0  0  0  0  0  0  0  0  0  0
   -4.5530   -1.0046   -0.4008 H   0  0  0  0  0  0  0  0  0  0  0  0
  1  2  1  0
  1 11  1  0
  1 12  1  0
  1 13  1  0
  2  3  1  0
  2 14  1  0
  3  4  2  0
  3  5  1  0
  5  6  2  3
  5  7  1  0
  6 15  1  0
  6 16  1  0
  7  8  1  0
  7 17  1  0
  8  9  1  0
  8 10  2  0
  9 18  1  0
  9 19  1  0
  9 20  1  0
M  END

> <RosettaParamsInstructions>
M  ROOT 7
M  POLY_N_BB 7
M  POLY_CA_BB 5
M  POLY_C_BB 3
M  POLY_O_BB 4
M  POLY_IGNORE 1 10 9 14 11 12 13 18 19 20
M  POLY_UPPER 2
M  POLY_LOWER 8
M  POLY_CHG 0
M  POLY_PROPERTIES PROTEIN POLYMER ALPHA_AA ALIPHATIC
M  END

$$$$
DHA_new
     RDKit          3D

 20 19  0  0  0  0  0  0  0  0999 V2000
    2.7212   -1.0714    2.5175 C   0  0  0  0  0  0  0  0  0  0  0  0
    1.6926   -0.2671    1.8317 N   0  0  0  0  0  0  0  0  0  0  0  0
    0.5571   -0.8501    1.2685 C   0  0  0  0  0  0  0  0  0  0  0  0
    0.4346   -2.0989    1.3641 O   0  0  0  0  0  0  0  0  0  0  0  0
   -0.4559   -0.0616    0.5936 C   0  0  0  0  0  0  0  0  0  0  0  0
   -0.3285    1.2376    0.4941 C   0  0  0  0  0  0  0  0  0  0  0  0
   -1.5692   -0.7645    0.0587 N   0  0  0  0  0  0  0  0  0  0  0  0
   -2.6720   -0.2732   -0.6276 C   0  0  0  0  0  0  0  0  0  0  0  0
   -3.7810   -1.1396   -1.1385 C   0  0  0  0  0  0  0  0  0  0  0  0
   -2.8027    0.9456   -0.8620 O   0  0  0  0  0  0  0  0  0  0  0  0
    2.4688   -2.1425    2.4890 H   0  0  0  0  0  0  0  0  0  0  0  0
    2.7462   -0.6864    3.5519 H   0  0  0  0  0  0  0  0  0  0  0  0
    3.6849   -0.9462    2.0089 H   0  0  0  0  0  0  0  0  0  0  0  0
    1.9037    0.7445    1.8174 H   0  0  0  0  0  0  0  0  0  0  0  0
    0.5375    1.7214    0.9185 H   0  0  0  0  0  0  0  0  0  0  0  0
   -1.0193    1.9197    0.0148 H   0  0  0  0  0  0  0  0  0  0  0  0
   -1.5638   -1.8291    0.2021 H   0  0  0  0  0  0  0  0  0  0  0  0
   -4.6431   -1.1210   -0.4418 H   0  0  0  0  0  0  0  0  0  0  0  0
   -4.1089   -0.7805   -2.1356 H   0  0  0  0  0  0  0  0  0  0  0  0
   -3.4085   -2.1890   -1.1844 H   0  0  0  0  0  0  0  0  0  0  0  0
  1  2  1  0
  1 11  1  0
  1 12  1  0
  1 13  1  0
  2  3  1  0
  2 14  1  0
  3  4  2  0
  3  5  1  0
  5  6  2  3
  5  7  1  0
  6 15  1  0
  6 16  1  0
  7  8  1  0
  7 17  1  0
  8  9  1  0
  8 10  2  0
  9 18  1  0
  9 19  1  0
  9 20  1  0
M  END

> <RosettaParamsInstructions>
M  ROOT 7
M  POLY_N_BB 7
M  POLY_CA_BB 5
M  POLY_C_BB 3
M  POLY_O_BB 4
M  POLY_IGNORE 1 10 9 14 11 12 13 18 19 20
M  POLY_UPPER 2
M  POLY_LOWER 8
M  POLY_CHG 0
M  POLY_PROPERTIES PROTEIN POLYMER ALPHA_AA ALIPHATIC
M  END

$$$$
DHA_new
     RDKit          3D

 20 19  0  0  0  0  0  0  0  0999 V2000
    2.6325   -1.0155    2.6915 C   0  0  0  0  0  0  0  0  0  0  0  0
    1.6721   -0.2592    1.8880 N   0  0  0  0  0  0  0  0  0  0  0  0
    0.5290   -0.8360    1.3583 C   0  0  0  0  0  0  0  0  0  0  0  0
    0.2890   -2.0563    1.5647 O   0  0  0  0  0  0  0  0  0  0  0  0
   -0.4663   -0.1011    0.5397 C   0  0  0  0  0  0  0  0  0  0  0  0
   -0.2597    1.1507    0.3039 C   0  0  0  0  0  0  0  0  0  0  0  0
   -1.5965   -0.7982    0.0527 N   0  0  0  0  0  0  0  0  0  0  0  0
   -2.6034   -0.2548   -0.7177 C   0  0  0  0  0  0  0  0  0  0  0  0
   -3.7477   -1.1397   -1.1591 C   0  0  0  0  0  0  0  0  0  0  0  0
   -2.6662    0.9179   -1.0948 O   0  0  0  0  0  0  0  0  0  0  0  0
    2.7991   -0.4864    3.6456 H   0  0  0  0  0  0  0  0  0  0  0  0
    2.3256   -2.0529    2.8178 H   0  0  0  0  0  0  0  0  0  0  0  0
    3.6076   -1.0162    2.1494 H   0  0  0  0  0  0  0  0  0  0  0  0
    1.9312    0.7385    1.7576 H   0  0  0  0  0  0  0  0  0  0  0  0
    0.6142    1.6474    0.6927 H   0  0  0  0  0  0  0  0  0  0  0  0
   -0.9126    1.7577   -0.2692 H   0  0  0  0  0  0  0  0  0  0  0  0
   -1.6949   -1.8417    0.2942 H   0  0  0  0  0  0  0  0  0  0  0  0
   -3.6601   -1.3485   -2.2324 H   0  0  0  0  0  0  0  0  0  0  0  0
   -3.7386   -2.0955   -0.6027 H   0  0  0  0  0  0  0  0  0  0  0  0
   -4.6607   -0.5626   -0.9393 H   0  0  0  0  0  0  0  0  0  0  0  0
  1  2  1  0
  1 11  1  0
  1 12  1  0
  1 13  1  0
  2  3  1  0
  2 14  1  0
  3  4  2  0
  3  5  1  0
  5  6  2  3
  5  7  1  0
  6 15  1  0
  6 16  1  0
  7  8  1  0
  7 17  1  0
  8  9  1  0
  8 10  2  0
  9 18  1  0
  9 19  1  0
  9 20  1  0
M  END

> <RosettaParamsInstructions>
M  ROOT 7
M  POLY_N_BB 7
M  POLY_CA_BB 5
M  POLY_C_BB 3
M  POLY_O_BB 4
M  POLY_IGNORE 1 10 9 14 11 12 13 18 19 20
M  POLY_UPPER 2
M  POLY_LOWER 8
M  POLY_CHG 0
M  POLY_PROPERTIES PROTEIN POLYMER ALPHA_AA ALIPHATIC
M  END

$$$$
DHA_new
     RDKit          3D

 20 19  0  0  0  0  0  0  0  0999 V2000
    2.6805   -1.0489    2.6007 C   0  0  0  0  0  0  0  0  0  0  0  0
    1.6812   -0.2314    1.8921 N   0  0  0  0  0  0  0  0  0  0  0  0
    0.5589   -0.8214    1.3033 C   0  0  0  0  0  0  0  0  0  0  0  0
    0.4275   -2.0842    1.3982 O   0  0  0  0  0  0  0  0  0  0  0  0
   -0.4570   -0.0578    0.5921 C   0  0  0  0  0  0  0  0  0  0  0  0
   -0.3336    1.2500    0.4863 C   0  0  0  0  0  0  0  0  0  0  0  0
   -1.5621   -0.7874    0.0328 N   0  0  0  0  0  0  0  0  0  0  0  0
   -2.6385   -0.2687   -0.6809 C   0  0  0  0  0  0  0  0  0  0  0  0
   -3.7364   -1.1476   -1.2155 C   0  0  0  0  0  0  0  0  0  0  0  0
   -2.7788    0.9425   -0.9309 O   0  0  0  0  0  0  0  0  0  0  0  0
    2.1707   -1.7526    3.2880 H   0  0  0  0  0  0  0  0  0  0  0  0
    3.4076   -0.4289    3.1262 H   0  0  0  0  0  0  0  0  0  0  0  0
    3.2001   -1.6556    1.8349 H   0  0  0  0  0  0  0  0  0  0  0  0
    1.8440    0.7888    1.8492 H   0  0  0  0  0  0  0  0  0  0  0  0
    0.5234    1.7388    0.9306 H   0  0  0  0  0  0  0  0  0  0  0  0
   -1.0518    1.8931   -0.0307 H   0  0  0  0  0  0  0  0  0  0  0  0
   -1.5205   -1.8419    0.2024 H   0  0  0  0  0  0  0  0  0  0  0  0
   -3.7927   -2.0136   -0.5062 H   0  0  0  0  0  0  0  0  0  0  0  0
   -3.5309   -1.5139   -2.2186 H   0  0  0  0  0  0  0  0  0  0  0  0
   -4.6981   -0.6115   -1.2131 H   0  0  0  0  0  0  0  0  0  0  0  0
  1  2  1  0
  1 11  1  0
  1 12  1  0
  1 13  1  0
  2  3  1  0
  2 14  1  0
  3  4  2  0
  3  5  1  0
  5  6  2  3
  5  7  1  0
  6 15  1  0
  6 16  1  0
  7  8  1  0
  7 17  1  0
  8  9  1  0
  8 10  2  0
  9 18  1  0
  9 19  1  0
  9 20  1  0
M  END

> <RosettaParamsInstructions>
M  ROOT 7
M  POLY_N_BB 7
M  POLY_CA_BB 5
M  POLY_C_BB 3
M  POLY_O_BB 4
M  POLY_IGNORE 1 10 9 14 11 12 13 18 19 20
M  POLY_UPPER 2
M  POLY_LOWER 8
M  POLY_CHG 0
M  POLY_PROPERTIES PROTEIN POLYMER ALPHA_AA ALIPHATIC
M  END

$$$$
DHA_new
     RDKit          3D

 20 19  0  0  0  0  0  0  0  0999 V2000
    2.6655   -1.0967    2.5517 C   0  0  0  0  0  0  0  0  0  0  0  0
    1.6865   -0.2267    1.8606 N   0  0  0  0  0  0  0  0  0  0  0  0
    0.5532   -0.7987    1.2811 C   0  0  0  0  0  0  0  0  0  0  0  0
    0.4003   -2.0550    1.3675 O   0  0  0  0  0  0  0  0  0  0  0  0
   -0.4565   -0.0278    0.5858 C   0  0  0  0  0  0  0  0  0  0  0  0
   -0.3244    1.2731    0.4810 C   0  0  0  0  0  0  0  0  0  0  0  0
   -1.5602   -0.7414    0.0433 N   0  0  0  0  0  0  0  0  0  0  0  0
   -2.6513   -0.2440   -0.6610 C   0  0  0  0  0  0  0  0  0  0  0  0
   -3.7261   -1.1790   -1.1559 C   0  0  0  0  0  0  0  0  0  0  0  0
   -2.8240    0.9568   -0.9293 O   0  0  0  0  0  0  0  0  0  0  0  0
    2.1288   -1.8403    3.1638 H   0  0  0  0  0  0  0  0  0  0  0  0
    3.3119   -1.6139    1.8050 H   0  0  0  0  0  0  0  0  0  0  0  0
    3.3022   -0.4783    3.2070 H   0  0  0  0  0  0  0  0  0  0  0  0
    1.8617    0.7928    1.8201 H   0  0  0  0  0  0  0  0  0  0  0  0
    0.5259    1.7723    0.9061 H   0  0  0  0  0  0  0  0  0  0  0  0
   -1.0563    1.8718   -0.0285 H   0  0  0  0  0  0  0  0  0  0  0  0
   -1.5495   -1.8078    0.1985 H   0  0  0  0  0  0  0  0  0  0  0  0
   -4.6980   -0.6761   -0.9729 H   0  0  0  0  0  0  0  0  0  0  0  0
   -3.5427   -1.4192   -2.2125 H   0  0  0  0  0  0  0  0  0  0  0  0
   -3.6533   -2.1140   -0.5707 H   0  0  0  0  0  0  0  0  0  0  0  0
  1  2  1  0
  1 11  1  0
  1 12  1  0
  1 13  1  0
  2  3  1  0
  2 14  1  0
  3  4  2  0
  3  5  1  0
  5  6  2  3
  5  7  1  0
  6 15  1  0
  6 16  1  0
  7  8  1  0
  7 17  1  0
  8  9  1  0
  8 10  2  0
  9 18  1  0
  9 19  1  0
  9 20  1  0
M  END

> <RosettaParamsInstructions>
M  ROOT 7
M  POLY_N_BB 7
M  POLY_CA_BB 5
M  POLY_C_BB 3
M  POLY_O_BB 4
M  POLY_IGNORE 1 10 9 14 11 12 13 18 19 20
M  POLY_UPPER 2
M  POLY_LOWER 8
M  POLY_CHG 0
M  POLY_PROPERTIES PROTEIN POLYMER ALPHA_AA ALIPHATIC
M  END

$$$$
DHA_new
     RDKit          3D

 20 19  0  0  0  0  0  0  0  0999 V2000
    2.6262   -1.0345    2.6575 C   0  0  0  0  0  0  0  0  0  0  0  0
    1.6963   -0.2373    1.8781 N   0  0  0  0  0  0  0  0  0  0  0  0
    0.5531   -0.8102    1.3514 C   0  0  0  0  0  0  0  0  0  0  0  0
    0.3272   -2.0448    1.5591 O   0  0  0  0  0  0  0  0  0  0  0  0
   -0.4440   -0.0655    0.5463 C   0  0  0  0  0  0  0  0  0  0  0  0
   -0.2751    1.2167    0.2912 C   0  0  0  0  0  0  0  0  0  0  0  0
   -1.5847   -0.7481    0.0516 N   0  0  0  0  0  0  0  0  0  0  0  0
   -2.6202   -0.2575   -0.7060 C   0  0  0  0  0  0  0  0  0  0  0  0
   -3.7510   -1.1561   -1.1346 C   0  0  0  0  0  0  0  0  0  0  0  0
   -2.7123    0.9143   -1.0870 O   0  0  0  0  0  0  0  0  0  0  0  0
    2.1049   -1.9372    3.0424 H   0  0  0  0  0  0  0  0  0  0  0  0
    3.4874   -1.3874    2.0643 H   0  0  0  0  0  0  0  0  0  0  0  0
    3.0456   -0.4541    3.5117 H   0  0  0  0  0  0  0  0  0  0  0  0
    1.9379    0.7492    1.7488 H   0  0  0  0  0  0  0  0  0  0  0  0
   -0.9342    1.8434   -0.2784 H   0  0  0  0  0  0  0  0  0  0  0  0
    0.6401    1.6750    0.7128 H   0  0  0  0  0  0  0  0  0  0  0  0
   -1.6366   -1.7891    0.3099 H   0  0  0  0  0  0  0  0  0  0  0  0
   -4.1458   -0.8341   -2.1200 H   0  0  0  0  0  0  0  0  0  0  0  0
   -3.3381   -2.1927   -1.2440 H   0  0  0  0  0  0  0  0  0  0  0  0
   -4.5832   -1.1023   -0.4142 H   0  0  0  0  0  0  0  0  0  0  0  0
  1  2  1  0
  1 11  1  0
  1 12  1  0
  1 13  1  0
  2  3  1  0
  2 14  1  0
  3  4  2  0
  3  5  1  0
  5  6  2  3
  5  7  1  0
  6 15  1  0
  6 16  1  0
  7  8  1  0
  7 17  1  0
  8  9  1  0
  8 10  2  0
  9 18  1  0
  9 19  1  0
  9 20  1  0
M  END

> <RosettaParamsInstructions>
M  ROOT 7
M  POLY_N_BB 7
M  POLY_CA_BB 5
M  POLY_C_BB 3
M  POLY_O_BB 4
M  POLY_IGNORE 1 10 9 14 11 12 13 18 19 20
M  POLY_UPPER 2
M  POLY_LOWER 8
M  POLY_CHG 0
M  POLY_PROPERTIES PROTEIN POLYMER ALPHA_AA ALIPHATIC
M  END

$$$$
DHA_new
     RDKit          3D

 20 19  0  0  0  0  0  0  0  0999 V2000
    2.6861   -1.0546    2.5845 C   0  0  0  0  0  0  0  0  0  0  0  0
    1.7016   -0.2229    1.8743 N   0  0  0  0  0  0  0  0  0  0  0  0
    0.5732   -0.8167    1.3099 C   0  0  0  0  0  0  0  0  0  0  0  0
    0.4173   -2.0826    1.4229 O   0  0  0  0  0  0  0  0  0  0  0  0
   -0.4727   -0.0802    0.5790 C   0  0  0  0  0  0  0  0  0  0  0  0
   -0.3486    1.2113    0.4433 C   0  0  0  0  0  0  0  0  0  0  0  0
   -1.5848   -0.7630    0.0385 N   0  0  0  0  0  0  0  0  0  0  0  0
   -2.6650   -0.2424   -0.6775 C   0  0  0  0  0  0  0  0  0  0  0  0
   -3.7539   -1.1838   -1.1628 C   0  0  0  0  0  0  0  0  0  0  0  0
   -2.8390    0.9705   -0.9750 O   0  0  0  0  0  0  0  0  0  0  0  0
    3.6732   -0.9886    2.0600 H   0  0  0  0  0  0  0  0  0  0  0  0
    2.8041   -0.7200    3.6369 H   0  0  0  0  0  0  0  0  0  0  0  0
    2.3657   -2.1209    2.5995 H   0  0  0  0  0  0  0  0  0  0  0  0
    1.9346    0.7820    1.8485 H   0  0  0  0  0  0  0  0  0  0  0  0
    0.5283    1.7170    0.8748 H   0  0  0  0  0  0  0  0  0  0  0  0
   -1.0356    1.8742   -0.0656 H   0  0  0  0  0  0  0  0  0  0  0  0
   -1.5857   -1.8179    0.2082 H   0  0  0  0  0  0  0  0  0  0  0  0
   -3.6598   -1.3035   -2.2494 H   0  0  0  0  0  0  0  0  0  0  0  0
   -4.7021   -0.6720   -0.9633 H   0  0  0  0  0  0  0  0  0  0  0  0
   -3.6435   -2.1384   -0.6459 H   0  0  0  0  0  0  0  0  0  0  0  0
  1  2  1  0
  1 11  1  0
  1 12  1  0
  1 13  1  0
  2  3  1  0
  2 14  1  0
  3  4  2  0
  3  5  1  0
  5  6  2  3
  5  7  1  0
  6 15  1  0
  6 16  1  0
  7  8  1  0
  7 17  1  0
  8  9  1  0
  8 10  2  0
  9 18  1  0
  9 19  1  0
  9 20  1  0
M  END

> <RosettaParamsInstructions>
M  ROOT 7
M  POLY_N_BB 7
M  POLY_CA_BB 5
M  POLY_C_BB 3
M  POLY_O_BB 4
M  POLY_IGNORE 1 10 9 14 11 12 13 18 19 20
M  POLY_UPPER 2
M  POLY_LOWER 8
M  POLY_CHG 0
M  POLY_PROPERTIES PROTEIN POLYMER ALPHA_AA ALIPHATIC
M  END

$$$$
DHA_new
     RDKit          3D

 20 19  0  0  0  0  0  0  0  0999 V2000
    2.6729   -1.0508    2.5588 C   0  0  0  0  0  0  0  0  0  0  0  0
    1.6560   -0.2124    1.8983 N   0  0  0  0  0  0  0  0  0  0  0  0
    0.5854   -0.8507    1.2930 C   0  0  0  0  0  0  0  0  0  0  0  0
    0.4736   -2.1183    1.3008 O   0  0  0  0  0  0  0  0  0  0  0  0
   -0.4793   -0.0829    0.6080 C   0  0  0  0  0  0  0  0  0  0  0  0
   -0.4032    1.2135    0.5771 C   0  0  0  0  0  0  0  0  0  0  0  0
   -1.5557   -0.7845    0.0030 N   0  0  0  0  0  0  0  0  0  0  0  0
   -2.6388   -0.2447   -0.6795 C   0  0  0  0  0  0  0  0  0  0  0  0
   -3.6891   -1.1850   -1.2548 C   0  0  0  0  0  0  0  0  0  0  0  0
   -2.8089    0.9824   -0.8542 O   0  0  0  0  0  0  0  0  0  0  0  0
    2.3302   -1.2236    3.6107 H   0  0  0  0  0  0  0  0  0  0  0  0
    3.6525   -0.5348    2.5482 H   0  0  0  0  0  0  0  0  0  0  0  0
    2.7487   -1.9769    1.9778 H   0  0  0  0  0  0  0  0  0  0  0  0
    1.8179    0.7810    1.9372 H   0  0  0  0  0  0  0  0  0  0  0  0
   -1.1055    1.8783    0.1159 H   0  0  0  0  0  0  0  0  0  0  0  0
    0.4375    1.7327    1.0513 H   0  0  0  0  0  0  0  0  0  0  0  0
   -1.5127   -1.8486    0.0917 H   0  0  0  0  0  0  0  0  0  0  0  0
   -4.6664   -0.6659   -1.2024 H   0  0  0  0  0  0  0  0  0  0  0  0
   -3.3857   -1.4293   -2.2779 H   0  0  0  0  0  0  0  0  0  0  0  0
   -3.7360   -2.0319   -0.5621 H   0  0  0  0  0  0  0  0  0  0  0  0
  1  2  1  0
  1 11  1  0
  1 12  1  0
  1 13  1  0
  2  3  1  0
  2 14  1  0
  3  4  2  0
  3  5  1  0
  5  6  2  3
  5  7  1  0
  6 15  1  0
  6 16  1  0
  7  8  1  0
  7 17  1  0
  8  9  1  0
  8 10  2  0
  9 18  1  0
  9 19  1  0
  9 20  1  0
M  END

> <RosettaParamsInstructions>
M  ROOT 7
M  POLY_N_BB 7
M  POLY_CA_BB 5
M  POLY_C_BB 3
M  POLY_O_BB 4
M  POLY_IGNORE 1 10 9 14 11 12 13 18 19 20
M  POLY_UPPER 2
M  POLY_LOWER 8
M  POLY_CHG 0
M  POLY_PROPERTIES PROTEIN POLYMER ALPHA_AA ALIPHATIC
M  END

$$$$
DHA_new
     RDKit          3D

 20 19  0  0  0  0  0  0  0  0999 V2000
    2.6673   -1.0476    2.5847 C   0  0  0  0  0  0  0  0  0  0  0  0
    1.6793   -0.2022    1.9096 N   0  0  0  0  0  0  0  0  0  0  0  0
    0.5838   -0.8045    1.3074 C   0  0  0  0  0  0  0  0  0  0  0  0
    0.4701   -2.0717    1.3594 O   0  0  0  0  0  0  0  0  0  0  0  0
   -0.4712   -0.0549    0.6010 C   0  0  0  0  0  0  0  0  0  0  0  0
   -0.3416    1.2592    0.5541 C   0  0  0  0  0  0  0  0  0  0  0  0
   -1.5494   -0.7625    0.0192 N   0  0  0  0  0  0  0  0  0  0  0  0
   -2.6339   -0.2465   -0.6827 C   0  0  0  0  0  0  0  0  0  0  0  0
   -3.6856   -1.1893   -1.2262 C   0  0  0  0  0  0  0  0  0  0  0  0
   -2.8413    0.9490   -0.9213 O   0  0  0  0  0  0  0  0  0  0  0  0
    2.2385   -1.4095    3.5388 H   0  0  0  0  0  0  0  0  0  0  0  0
    3.6390   -0.5427    2.6966 H   0  0  0  0  0  0  0  0  0  0  0  0
    2.8341   -1.9553    1.9598 H   0  0  0  0  0  0  0  0  0  0  0  0
    1.8298    0.8127    1.9038 H   0  0  0  0  0  0  0  0  0  0  0  0
    0.4817    1.8184    0.9966 H   0  0  0  0  0  0  0  0  0  0  0  0
   -1.0926    1.8524    0.0457 H   0  0  0  0  0  0  0  0  0  0  0  0
   -1.5010   -1.8210    0.1490 H   0  0  0  0  0  0  0  0  0  0  0  0
   -3.2752   -2.2023   -1.3546 H   0  0  0  0  0  0  0  0  0  0  0  0
   -4.5428   -1.2225   -0.5155 H   0  0  0  0  0  0  0  0  0  0  0  0
   -4.0954   -0.8114   -2.1845 H   0  0  0  0  0  0  0  0  0  0  0  0
  1  2  1  0
  1 11  1  0
  1 12  1  0
  1 13  1  0
  2  3  1  0
  2 14  1  0
  3  4  2  0
  3  5  1  0
  5  6  2  3
  5  7  1  0
  6 15  1  0
  6 16  1  0
  7  8  1  0
  7 17  1  0
  8  9  1  0
  8 10  2  0
  9 18  1  0
  9 19  1  0
  9 20  1  0
M  END

> <RosettaParamsInstructions>
M  ROOT 7
M  POLY_N_BB 7
M  POLY_CA_BB 5
M  POLY_C_BB 3
M  POLY_O_BB 4
M  POLY_IGNORE 1 10 9 14 11 12 13 18 19 20
M  POLY_UPPER 2
M  POLY_LOWER 8
M  POLY_CHG 0
M  POLY_PROPERTIES PROTEIN POLYMER ALPHA_AA ALIPHATIC
M  END

$$$$
DHA_new
     RDKit          3D

 20 19  0  0  0  0  0  0  0  0999 V2000
    2.7167   -1.0987    2.4975 C   0  0  0  0  0  0  0  0  0  0  0  0
    1.6919   -0.2324    1.8518 N   0  0  0  0  0  0  0  0  0  0  0  0
    0.5745   -0.8325    1.2567 C   0  0  0  0  0  0  0  0  0  0  0  0
    0.4571   -2.0905    1.2784 O   0  0  0  0  0  0  0  0  0  0  0  0
   -0.4629   -0.0598    0.6104 C   0  0  0  0  0  0  0  0  0  0  0  0
   -0.3659    1.2525    0.5732 C   0  0  0  0  0  0  0  0  0  0  0  0
   -1.5418   -0.7807    0.0457 N   0  0  0  0  0  0  0  0  0  0  0  0
   -2.6362   -0.2239   -0.6178 C   0  0  0  0  0  0  0  0  0  0  0  0
   -3.7069   -1.1646   -1.1623 C   0  0  0  0  0  0  0  0  0  0  0  0
   -2.8634    0.9743   -0.8319 O   0  0  0  0  0  0  0  0  0  0  0  0
    2.4387   -1.1122    3.5662 H   0  0  0  0  0  0  0  0  0  0  0  0
    2.6141   -2.1040    2.0727 H   0  0  0  0  0  0  0  0  0  0  0  0
    3.6776   -0.6094    2.2847 H   0  0  0  0  0  0  0  0  0  0  0  0
    1.8361    0.7934    1.8618 H   0  0  0  0  0  0  0  0  0  0  0  0
   -1.1063    1.8783    0.1067 H   0  0  0  0  0  0  0  0  0  0  0  0
    0.4699    1.7744    1.0132 H   0  0  0  0  0  0  0  0  0  0  0  0
   -1.5100   -1.8441    0.1389 H   0  0  0  0  0  0  0  0  0  0  0  0
   -4.5031   -1.2620   -0.4001 H   0  0  0  0  0  0  0  0  0  0  0  0
   -4.1429   -0.7667   -2.0826 H   0  0  0  0  0  0  0  0  0  0  0  0
   -3.2439   -2.1436   -1.3227 H   0  0  0  0  0  0  0  0  0  0  0  0
  1  2  1  0
  1 11  1  0
  1 12  1  0
  1 13  1  0
  2  3  1  0
  2 14  1  0
  3  4  2  0
  3  5  1  0
  5  6  2  3
  5  7  1  0
  6 15  1  0
  6 16  1  0
  7  8  1  0
  7 17  1  0
  8  9  1  0
  8 10  2  0
  9 18  1  0
  9 19  1  0
  9 20  1  0
M  END

> <RosettaParamsInstructions>
M  ROOT 7
M  POLY_N_BB 7
M  POLY_CA_BB 5
M  POLY_C_BB 3
M  POLY_O_BB 4
M  POLY_IGNORE 1 10 9 14 11 12 13 18 19 20
M  POLY_UPPER 2
M  POLY_LOWER 8
M  POLY_CHG 0
M  POLY_PROPERTIES PROTEIN POLYMER ALPHA_AA ALIPHATIC
M  END

$$$$
DHA_new
     RDKit          3D

 20 19  0  0  0  0  0  0  0  0999 V2000
    2.7013   -1.0617    2.5898 C   0  0  0  0  0  0  0  0  0  0  0  0
    1.7015   -0.2409    1.8658 N   0  0  0  0  0  0  0  0  0  0  0  0
    0.5700   -0.8347    1.3053 C   0  0  0  0  0  0  0  0  0  0  0  0
    0.4057   -2.0728    1.4198 O   0  0  0  0  0  0  0  0  0  0  0  0
   -0.4678   -0.0720    0.5689 C   0  0  0  0  0  0  0  0  0  0  0  0
   -0.3400    1.2157    0.4246 C   0  0  0  0  0  0  0  0  0  0  0  0
   -1.5671   -0.7734    0.0455 N   0  0  0  0  0  0  0  0  0  0  0  0
   -2.6357   -0.2381   -0.6703 C   0  0  0  0  0  0  0  0  0  0  0  0
   -3.7398   -1.1478   -1.1611 C   0  0  0  0  0  0  0  0  0  0  0  0
   -2.7489    0.9586   -0.9401 O   0  0  0  0  0  0  0  0  0  0  0  0
    2.1526   -1.7357    3.2939 H   0  0  0  0  0  0  0  0  0  0  0  0
    3.2191   -1.6577    1.8381 H   0  0  0  0  0  0  0  0  0  0  0  0
    3.3343   -0.4070    3.1883 H   0  0  0  0  0  0  0  0  0  0  0  0
    1.8675    0.7743    1.7902 H   0  0  0  0  0  0  0  0  0  0  0  0
    0.5239    1.7225    0.8434 H   0  0  0  0  0  0  0  0  0  0  0  0
   -1.0392    1.8185   -0.0867 H   0  0  0  0  0  0  0  0  0  0  0  0
   -1.5682   -1.8345    0.2254 H   0  0  0  0  0  0  0  0  0  0  0  0
   -4.6847   -0.5817   -1.0981 H   0  0  0  0  0  0  0  0  0  0  0  0
   -3.7341   -2.0313   -0.5029 H   0  0  0  0  0  0  0  0  0  0  0  0
   -3.5570   -1.4525   -2.1989 H   0  0  0  0  0  0  0  0  0  0  0  0
  1  2  1  0
  1 11  1  0
  1 12  1  0
  1 13  1  0
  2  3  1  0
  2 14  1  0
  3  4  2  0
  3  5  1  0
  5  6  2  3
  5  7  1  0
  6 15  1  0
  6 16  1  0
  7  8  1  0
  7 17  1  0
  8  9  1  0
  8 10  2  0
  9 18  1  0
  9 19  1  0
  9 20  1  0
M  END

> <RosettaParamsInstructions>
M  ROOT 7
M  POLY_N_BB 7
M  POLY_CA_BB 5
M  POLY_C_BB 3
M  POLY_O_BB 4
M  POLY_IGNORE 1 10 9 14 11 12 13 18 19 20
M  POLY_UPPER 2
M  POLY_LOWER 8
M  POLY_CHG 0
M  POLY_PROPERTIES PROTEIN POLYMER ALPHA_AA ALIPHATIC
M  END

$$$$
DHA_new
     RDKit          3D

 20 19  0  0  0  0  0  0  0  0999 V2000
    2.6632   -1.0374    2.5705 C   0  0  0  0  0  0  0  0  0  0  0  0
    1.6754   -0.2095    1.8586 N   0  0  0  0  0  0  0  0  0  0  0  0
    0.5585   -0.8487    1.3023 C   0  0  0  0  0  0  0  0  0  0  0  0
    0.4436   -2.0994    1.4321 O   0  0  0  0  0  0  0  0  0  0  0  0
   -0.4547   -0.0943    0.5870 C   0  0  0  0  0  0  0  0  0  0  0  0
   -0.3251    1.1943    0.4599 C   0  0  0  0  0  0  0  0  0  0  0  0
   -1.5467   -0.7967    0.0553 N   0  0  0  0  0  0  0  0  0  0  0  0
   -2.6405   -0.2892   -0.6684 C   0  0  0  0  0  0  0  0  0  0  0  0
   -3.7415   -1.1672   -1.1777 C   0  0  0  0  0  0  0  0  0  0  0  0
   -2.7556    0.9191   -0.9269 O   0  0  0  0  0  0  0  0  0  0  0  0
    3.6538   -0.7383    2.2171 H   0  0  0  0  0  0  0  0  0  0  0  0
    2.5932   -0.8915    3.6612 H   0  0  0  0  0  0  0  0  0  0  0  0
    2.4873   -2.1219    2.3706 H   0  0  0  0  0  0  0  0  0  0  0  0
    1.9183    0.7957    1.8429 H   0  0  0  0  0  0  0  0  0  0  0  0
   -1.0029    1.8795   -0.0471 H   0  0  0  0  0  0  0  0  0  0  0  0
    0.5390    1.7488    0.8808 H   0  0  0  0  0  0  0  0  0  0  0  0
   -1.5730   -1.8497    0.2061 H   0  0  0  0  0  0  0  0  0  0  0  0
   -3.6158   -1.2648   -2.2678 H   0  0  0  0  0  0  0  0  0  0  0  0
   -4.7071   -0.6432   -0.9441 H   0  0  0  0  0  0  0  0  0  0  0  0
   -3.7757   -2.1377   -0.6717 H   0  0  0  0  0  0  0  0  0  0  0  0
  1  2  1  0
  1 11  1  0
  1 12  1  0
  1 13  1  0
  2  3  1  0
  2 14  1  0
  3  4  2  0
  3  5  1  0
  5  6  2  3
  5  7  1  0
  6 15  1  0
  6 16  1  0
  7  8  1  0
  7 17  1  0
  8  9  1  0
  8 10  2  0
  9 18  1  0
  9 19  1  0
  9 20  1  0
M  END

> <RosettaParamsInstructions>
M  ROOT 7
M  POLY_N_BB 7
M  POLY_CA_BB 5
M  POLY_C_BB 3
M  POLY_O_BB 4
M  POLY_IGNORE 1 10 9 14 11 12 13 18 19 20
M  POLY_UPPER 2
M  POLY_LOWER 8
M  POLY_CHG 0
M  POLY_PROPERTIES PROTEIN POLYMER ALPHA_AA ALIPHATIC
M  END

$$$$
DHA_new
     RDKit          3D

 20 19  0  0  0  0  0  0  0  0999 V2000
    2.6617   -1.0389    2.5576 C   0  0  0  0  0  0  0  0  0  0  0  0
    1.6706   -0.2140    1.8440 N   0  0  0  0  0  0  0  0  0  0  0  0
    0.5645   -0.8523    1.3080 C   0  0  0  0  0  0  0  0  0  0  0  0
    0.3970   -2.1147    1.4215 O   0  0  0  0  0  0  0  0  0  0  0  0
   -0.4829   -0.0970    0.5733 C   0  0  0  0  0  0  0  0  0  0  0  0
   -0.3068    1.2001    0.4590 C   0  0  0  0  0  0  0  0  0  0  0  0
   -1.5922   -0.8043    0.0470 N   0  0  0  0  0  0  0  0  0  0  0  0
   -2.6354   -0.2246   -0.6559 C   0  0  0  0  0  0  0  0  0  0  0  0
   -3.7391   -1.1537   -1.1419 C   0  0  0  0  0  0  0  0  0  0  0  0
   -2.7670    0.9787   -0.9334 O   0  0  0  0  0  0  0  0  0  0  0  0
    3.4074   -1.3740    1.8223 H   0  0  0  0  0  0  0  0  0  0  0  0
    3.1378   -0.4504    3.3590 H   0  0  0  0  0  0  0  0  0  0  0  0
    2.1188   -1.8907    3.0242 H   0  0  0  0  0  0  0  0  0  0  0  0
    1.8868    0.7809    1.8035 H   0  0  0  0  0  0  0  0  0  0  0  0
    0.5553    1.7233    0.8725 H   0  0  0  0  0  0  0  0  0  0  0  0
   -0.9978    1.8385   -0.0491 H   0  0  0  0  0  0  0  0  0  0  0  0
   -1.6052   -1.8465    0.2135 H   0  0  0  0  0  0  0  0  0  0  0  0
   -3.2428   -2.0921   -1.4544 H   0  0  0  0  0  0  0  0  0  0  0  0
   -4.2226   -0.7241   -2.0314 H   0  0  0  0  0  0  0  0  0  0  0  0
   -4.4144   -1.2965   -0.2985 H   0  0  0  0  0  0  0  0  0  0  0  0
  1  2  1  0
  1 11  1  0
  1 12  1  0
  1 13  1  0
  2  3  1  0
  2 14  1  0
  3  4  2  0
  3  5  1  0
  5  6  2  3
  5  7  1  0
  6 15  1  0
  6 16  1  0
  7  8  1  0
  7 17  1  0
  8  9  1  0
  8 10  2  0
  9 18  1  0
  9 19  1  0
  9 20  1  0
M  END

> <RosettaParamsInstructions>
M  ROOT 7
M  POLY_N_BB 7
M  POLY_CA_BB 5
M  POLY_C_BB 3
M  POLY_O_BB 4
M  POLY_IGNORE 1 10 9 14 11 12 13 18 19 20
M  POLY_UPPER 2
M  POLY_LOWER 8
M  POLY_CHG 0
M  POLY_PROPERTIES PROTEIN POLYMER ALPHA_AA ALIPHATIC
M  END

$$$$
DHA_new
     RDKit          3D

 20 19  0  0  0  0  0  0  0  0999 V2000
    2.6388   -1.0847    2.6052 C   0  0  0  0  0  0  0  0  0  0  0  0
    1.6991   -0.2584    1.8442 N   0  0  0  0  0  0  0  0  0  0  0  0
    0.5379   -0.8103    1.3140 C   0  0  0  0  0  0  0  0  0  0  0  0
    0.3186   -2.0504    1.5101 O   0  0  0  0  0  0  0  0  0  0  0  0
   -0.4533   -0.0651    0.5442 C   0  0  0  0  0  0  0  0  0  0  0  0
   -0.2293    1.2066    0.3427 C   0  0  0  0  0  0  0  0  0  0  0  0
   -1.6044   -0.7618    0.0577 N   0  0  0  0  0  0  0  0  0  0  0  0
   -2.6539   -0.2380   -0.6882 C   0  0  0  0  0  0  0  0  0  0  0  0
   -3.7728   -1.1380   -1.1030 C   0  0  0  0  0  0  0  0  0  0  0  0
   -2.7473    0.9465   -1.0513 O   0  0  0  0  0  0  0  0  0  0  0  0
    3.5852   -1.0959    2.0069 H   0  0  0  0  0  0  0  0  0  0  0  0
    2.2392   -2.0808    2.7917 H   0  0  0  0  0  0  0  0  0  0  0  0
    2.8779   -0.5511    3.5413 H   0  0  0  0  0  0  0  0  0  0  0  0
    1.9694    0.7339    1.7423 H   0  0  0  0  0  0  0  0  0  0  0  0
   -0.9060    1.8428   -0.2161 H   0  0  0  0  0  0  0  0  0  0  0  0
    0.6598    1.7280    0.7229 H   0  0  0  0  0  0  0  0  0  0  0  0
   -1.6532   -1.7965    0.2992 H   0  0  0  0  0  0  0  0  0  0  0  0
   -4.6925   -0.5820   -1.2932 H   0  0  0  0  0  0  0  0  0  0  0  0
   -3.4198   -1.7441   -1.9701 H   0  0  0  0  0  0  0  0  0  0  0  0
   -3.9999   -1.8530   -0.2596 H   0  0  0  0  0  0  0  0  0  0  0  0
  1  2  1  0
  1 11  1  0
  1 12  1  0
  1 13  1  0
  2  3  1  0
  2 14  1  0
  3  4  2  0
  3  5  1  0
  5  6  2  3
  5  7  1  0
  6 15  1  0
  6 16  1  0
  7  8  1  0
  7 17  1  0
  8  9  1  0
  8 10  2  0
  9 18  1  0
  9 19  1  0
  9 20  1  0
M  END

> <RosettaParamsInstructions>
M  ROOT 7
M  POLY_N_BB 7
M  POLY_CA_BB 5
M  POLY_C_BB 3
M  POLY_O_BB 4
M  POLY_IGNORE 1 10 9 14 11 12 13 18 19 20
M  POLY_UPPER 2
M  POLY_LOWER 8
M  POLY_CHG 0
M  POLY_PROPERTIES PROTEIN POLYMER ALPHA_AA ALIPHATIC
M  END

$$$$
DHA_new
     RDKit          3D

 20 19  0  0  0  0  0  0  0  0999 V2000
    2.7125   -1.0542    2.5286 C   0  0  0  0  0  0  0  0  0  0  0  0
    1.6972   -0.2621    1.8303 N   0  0  0  0  0  0  0  0  0  0  0  0
    0.5572   -0.8482    1.2800 C   0  0  0  0  0  0  0  0  0  0  0  0
    0.4174   -2.1099    1.4009 O   0  0  0  0  0  0  0  0  0  0  0  0
   -0.4627   -0.0831    0.5833 C   0  0  0  0  0  0  0  0  0  0  0  0
   -0.3539    1.2123    0.4395 C   0  0  0  0  0  0  0  0  0  0  0  0
   -1.5710   -0.7804    0.0685 N   0  0  0  0  0  0  0  0  0  0  0  0
   -2.6486   -0.2320   -0.6263 C   0  0  0  0  0  0  0  0  0  0  0  0
   -3.7659   -1.1491   -1.1115 C   0  0  0  0  0  0  0  0  0  0  0  0
   -2.8202    0.9527   -0.9108 O   0  0  0  0  0  0  0  0  0  0  0  0
    3.6621   -1.0170    1.9519 H   0  0  0  0  0  0  0  0  0  0  0  0
    2.3246   -2.0877    2.6406 H   0  0  0  0  0  0  0  0  0  0  0  0
    2.9191   -0.6629    3.5359 H   0  0  0  0  0  0  0  0  0  0  0  0
    1.8859    0.7556    1.7756 H   0  0  0  0  0  0  0  0  0  0  0  0
   -1.0634    1.8457   -0.0611 H   0  0  0  0  0  0  0  0  0  0  0  0
    0.5265    1.7273    0.8547 H   0  0  0  0  0  0  0  0  0  0  0  0
   -1.5570   -1.8343    0.2433 H   0  0  0  0  0  0  0  0  0  0  0  0
   -3.6890   -2.1369   -0.6242 H   0  0  0  0  0  0  0  0  0  0  0  0
   -4.7222   -0.6468   -0.8566 H   0  0  0  0  0  0  0  0  0  0  0  0
   -3.6552   -1.2412   -2.2019 H   0  0  0  0  0  0  0  0  0  0  0  0
  1  2  1  0
  1 11  1  0
  1 12  1  0
  1 13  1  0
  2  3  1  0
  2 14  1  0
  3  4  2  0
  3  5  1  0
  5  6  2  3
  5  7  1  0
  6 15  1  0
  6 16  1  0
  7  8  1  0
  7 17  1  0
  8  9  1  0
  8 10  2  0
  9 18  1  0
  9 19  1  0
  9 20  1  0
M  END

> <RosettaParamsInstructions>
M  ROOT 7
M  POLY_N_BB 7
M  POLY_CA_BB 5
M  POLY_C_BB 3
M  POLY_O_BB 4
M  POLY_IGNORE 1 10 9 14 11 12 13 18 19 20
M  POLY_UPPER 2
M  POLY_LOWER 8
M  POLY_CHG 0
M  POLY_PROPERTIES PROTEIN POLYMER ALPHA_AA ALIPHATIC
M  END

$$$$
DHA_new
     RDKit          3D

 20 19  0  0  0  0  0  0  0  0999 V2000
    2.7407   -1.0569    2.5410 C   0  0  0  0  0  0  0  0  0  0  0  0
    1.7028   -0.2620    1.8726 N   0  0  0  0  0  0  0  0  0  0  0  0
    0.5870   -0.8648    1.2798 C   0  0  0  0  0  0  0  0  0  0  0  0
    0.4766   -2.1122    1.3236 O   0  0  0  0  0  0  0  0  0  0  0  0
   -0.4936   -0.1300    0.5920 C   0  0  0  0  0  0  0  0  0  0  0  0
   -0.4229    1.1792    0.5199 C   0  0  0  0  0  0  0  0  0  0  0  0
   -1.5714   -0.8349    0.0300 N   0  0  0  0  0  0  0  0  0  0  0  0
   -2.6448   -0.2613   -0.6398 C   0  0  0  0  0  0  0  0  0  0  0  0
   -3.7477   -1.1376   -1.2015 C   0  0  0  0  0  0  0  0  0  0  0  0
   -2.8420    0.9600   -0.8591 O   0  0  0  0  0  0  0  0  0  0  0  0
    2.7629   -0.7353    3.5980 H   0  0  0  0  0  0  0  0  0  0  0  0
    2.5361   -2.1256    2.4665 H   0  0  0  0  0  0  0  0  0  0  0  0
    3.6987   -0.7456    2.0757 H   0  0  0  0  0  0  0  0  0  0  0  0
    1.8920    0.7622    1.8936 H   0  0  0  0  0  0  0  0  0  0  0  0
   -1.1119    1.8470    0.0640 H   0  0  0  0  0  0  0  0  0  0  0  0
    0.4555    1.6629    0.9858 H   0  0  0  0  0  0  0  0  0  0  0  0
   -1.5632   -1.8960    0.1262 H   0  0  0  0  0  0  0  0  0  0  0  0
   -4.6523   -0.8773   -0.6174 H   0  0  0  0  0  0  0  0  0  0  0  0
   -3.9000   -0.8192   -2.2353 H   0  0  0  0  0  0  0  0  0  0  0  0
   -3.5090   -2.2045   -1.0747 H   0  0  0  0  0  0  0  0  0  0  0  0
  1  2  1  0
  1 11  1  0
  1 12  1  0
  1 13  1  0
  2  3  1  0
  2 14  1  0
  3  4  2  0
  3  5  1  0
  5  6  2  3
  5  7  1  0
  6 15  1  0
  6 16  1  0
  7  8  1  0
  7 17  1  0
  8  9  1  0
  8 10  2  0
  9 18  1  0
  9 19  1  0
  9 20  1  0
M  END

> <RosettaParamsInstructions>
M  ROOT 7
M  POLY_N_BB 7
M  POLY_CA_BB 5
M  POLY_C_BB 3
M  POLY_O_BB 4
M  POLY_IGNORE 1 10 9 14 11 12 13 18 19 20
M  POLY_UPPER 2
M  POLY_LOWER 8
M  POLY_CHG 0
M  POLY_PROPERTIES PROTEIN POLYMER ALPHA_AA ALIPHATIC
M  END

$$$$
DHA_new
     RDKit          3D

 20 19  0  0  0  0  0  0  0  0999 V2000
    2.6678   -1.0529    2.5533 C   0  0  0  0  0  0  0  0  0  0  0  0
    1.6744   -0.2022    1.8938 N   0  0  0  0  0  0  0  0  0  0  0  0
    0.5767   -0.8088    1.2894 C   0  0  0  0  0  0  0  0  0  0  0  0
    0.4577   -2.0597    1.3192 O   0  0  0  0  0  0  0  0  0  0  0  0
   -0.4617   -0.0377    0.6097 C   0  0  0  0  0  0  0  0  0  0  0  0
   -0.3510    1.2627    0.5710 C   0  0  0  0  0  0  0  0  0  0  0  0
   -1.5314   -0.7692    0.0320 N   0  0  0  0  0  0  0  0  0  0  0  0
   -2.6366   -0.2601   -0.6664 C   0  0  0  0  0  0  0  0  0  0  0  0
   -3.6968   -1.1927   -1.2224 C   0  0  0  0  0  0  0  0  0  0  0  0
   -2.8621    0.9493   -0.8976 O   0  0  0  0  0  0  0  0  0  0  0  0
    3.3071   -0.4637    3.2381 H   0  0  0  0  0  0  0  0  0  0  0  0
    3.2688   -1.5985    1.8207 H   0  0  0  0  0  0  0  0  0  0  0  0
    2.0993   -1.8189    3.1391 H   0  0  0  0  0  0  0  0  0  0  0  0
    1.8698    0.8099    1.9280 H   0  0  0  0  0  0  0  0  0  0  0  0
    0.4648    1.7766    1.0151 H   0  0  0  0  0  0  0  0  0  0  0  0
   -1.0982    1.8543    0.0789 H   0  0  0  0  0  0  0  0  0  0  0  0
   -1.5115   -1.8354    0.1292 H   0  0  0  0  0  0  0  0  0  0  0  0
   -3.8395   -0.9904   -2.3066 H   0  0  0  0  0  0  0  0  0  0  0  0
   -4.6094   -0.9725   -0.6577 H   0  0  0  0  0  0  0  0  0  0  0  0
   -3.3949   -2.2423   -1.1260 H   0  0  0  0  0  0  0  0  0  0  0  0
  1  2  1  0
  1 11  1  0
  1 12  1  0
  1 13  1  0
  2  3  1  0
  2 14  1  0
  3  4  2  0
  3  5  1  0
  5  6  2  3
  5  7  1  0
  6 15  1  0
  6 16  1  0
  7  8  1  0
  7 17  1  0
  8  9  1  0
  8 10  2  0
  9 18  1  0
  9 19  1  0
  9 20  1  0
M  END

> <RosettaParamsInstructions>
M  ROOT 7
M  POLY_N_BB 7
M  POLY_CA_BB 5
M  POLY_C_BB 3
M  POLY_O_BB 4
M  POLY_IGNORE 1 10 9 14 11 12 13 18 19 20
M  POLY_UPPER 2
M  POLY_LOWER 8
M  POLY_CHG 0
M  POLY_PROPERTIES PROTEIN POLYMER ALPHA_AA ALIPHATIC
M  END

$$$$
DHA_new
     RDKit          3D

 20 19  0  0  0  0  0  0  0  0999 V2000
    2.6106   -1.0662    2.6525 C   0  0  0  0  0  0  0  0  0  0  0  0
    1.7300   -0.2084    1.8299 N   0  0  0  0  0  0  0  0  0  0  0  0
    0.5492   -0.7939    1.3474 C   0  0  0  0  0  0  0  0  0  0  0  0
    0.3037   -2.0042    1.6363 O   0  0  0  0  0  0  0  0  0  0  0  0
   -0.4335   -0.0655    0.5113 C   0  0  0  0  0  0  0  0  0  0  0  0
   -0.1860    1.1714    0.2141 C   0  0  0  0  0  0  0  0  0  0  0  0
   -1.5799   -0.7500    0.0844 N   0  0  0  0  0  0  0  0  0  0  0  0
   -2.6276   -0.2634   -0.7034 C   0  0  0  0  0  0  0  0  0  0  0  0
   -3.7879   -1.1614   -1.0621 C   0  0  0  0  0  0  0  0  0  0  0  0
   -2.6414    0.9078   -1.1303 O   0  0  0  0  0  0  0  0  0  0  0  0
    2.6433   -2.0391    2.1367 H   0  0  0  0  0  0  0  0  0  0  0  0
    2.1494   -1.1645    3.6365 H   0  0  0  0  0  0  0  0  0  0  0  0
    3.6024   -0.5835    2.7559 H   0  0  0  0  0  0  0  0  0  0  0  0
    2.0287    0.7809    1.6513 H   0  0  0  0  0  0  0  0  0  0  0  0
   -0.8526    1.7660   -0.3890 H   0  0  0  0  0  0  0  0  0  0  0  0
    0.7261    1.6570    0.5749 H   0  0  0  0  0  0  0  0  0  0  0  0
   -1.6636   -1.7718    0.4007 H   0  0  0  0  0  0  0  0  0  0  0  0
   -3.5371   -1.7346   -1.9623 H   0  0  0  0  0  0  0  0  0  0  0  0
   -3.9687   -1.8080   -0.1869 H   0  0  0  0  0  0  0  0  0  0  0  0
   -4.6715   -0.5208   -1.2570 H   0  0  0  0  0  0  0  0  0  0  0  0
  1  2  1  0
  1 11  1  0
  1 12  1  0
  1 13  1  0
  2  3  1  0
  2 14  1  0
  3  4  2  0
  3  5  1  0
  5  6  2  3
  5  7  1  0
  6 15  1  0
  6 16  1  0
  7  8  1  0
  7 17  1  0
  8  9  1  0
  8 10  2  0
  9 18  1  0
  9 19  1  0
  9 20  1  0
M  END

> <RosettaParamsInstructions>
M  ROOT 7
M  POLY_N_BB 7
M  POLY_CA_BB 5
M  POLY_C_BB 3
M  POLY_O_BB 4
M  POLY_IGNORE 1 10 9 14 11 12 13 18 19 20
M  POLY_UPPER 2
M  POLY_LOWER 8
M  POLY_CHG 0
M  POLY_PROPERTIES PROTEIN POLYMER ALPHA_AA ALIPHATIC
M  END

$$$$
DHA_new
     RDKit          3D

 20 19  0  0  0  0  0  0  0  0999 V2000
    2.6619   -1.0749    2.5902 C   0  0  0  0  0  0  0  0  0  0  0  0
    1.6995   -0.2368    1.8808 N   0  0  0  0  0  0  0  0  0  0  0  0
    0.5549   -0.7957    1.2984 C   0  0  0  0  0  0  0  0  0  0  0  0
    0.3895   -2.0493    1.4110 O   0  0  0  0  0  0  0  0  0  0  0  0
   -0.4735   -0.0403    0.5643 C   0  0  0  0  0  0  0  0  0  0  0  0
   -0.3462    1.2573    0.4221 C   0  0  0  0  0  0  0  0  0  0  0  0
   -1.5755   -0.7196    0.0253 N   0  0  0  0  0  0  0  0  0  0  0  0
   -2.6547   -0.2258   -0.6970 C   0  0  0  0  0  0  0  0  0  0  0  0
   -3.7207   -1.1666   -1.1708 C   0  0  0  0  0  0  0  0  0  0  0  0
   -2.8040    0.9680   -0.9858 O   0  0  0  0  0  0  0  0  0  0  0  0
    2.9830   -0.5749    3.5267 H   0  0  0  0  0  0  0  0  0  0  0  0
    2.1883   -2.0441    2.8262 H   0  0  0  0  0  0  0  0  0  0  0  0
    3.5341   -1.3151    1.9231 H   0  0  0  0  0  0  0  0  0  0  0  0
    1.9340    0.7751    1.8495 H   0  0  0  0  0  0  0  0  0  0  0  0
    0.5423    1.7572    0.8631 H   0  0  0  0  0  0  0  0  0  0  0  0
   -1.0390    1.8793   -0.0910 H   0  0  0  0  0  0  0  0  0  0  0  0
   -1.5755   -1.7792    0.2029 H   0  0  0  0  0  0  0  0  0  0  0  0
   -3.8461   -1.9312   -0.3586 H   0  0  0  0  0  0  0  0  0  0  0  0
   -3.3899   -1.7047   -2.0745 H   0  0  0  0  0  0  0  0  0  0  0  0
   -4.6690   -0.6310   -1.2649 H   0  0  0  0  0  0  0  0  0  0  0  0
  1  2  1  0
  1 11  1  0
  1 12  1  0
  1 13  1  0
  2  3  1  0
  2 14  1  0
  3  4  2  0
  3  5  1  0
  5  6  2  3
  5  7  1  0
  6 15  1  0
  6 16  1  0
  7  8  1  0
  7 17  1  0
  8  9  1  0
  8 10  2  0
  9 18  1  0
  9 19  1  0
  9 20  1  0
M  END

> <RosettaParamsInstructions>
M  ROOT 7
M  POLY_N_BB 7
M  POLY_CA_BB 5
M  POLY_C_BB 3
M  POLY_O_BB 4
M  POLY_IGNORE 1 10 9 14 11 12 13 18 19 20
M  POLY_UPPER 2
M  POLY_LOWER 8
M  POLY_CHG 0
M  POLY_PROPERTIES PROTEIN POLYMER ALPHA_AA ALIPHATIC
M  END

$$$$
DHA_new
     RDKit          3D

 20 19  0  0  0  0  0  0  0  0999 V2000
    2.6256   -1.0235    2.6515 C   0  0  0  0  0  0  0  0  0  0  0  0
    1.6486   -0.2057    1.9015 N   0  0  0  0  0  0  0  0  0  0  0  0
    0.5529   -0.8399    1.3414 C   0  0  0  0  0  0  0  0  0  0  0  0
    0.3975   -2.0821    1.4707 O   0  0  0  0  0  0  0  0  0  0  0  0
   -0.4725   -0.0876    0.5735 C   0  0  0  0  0  0  0  0  0  0  0  0
   -0.2989    1.1971    0.4477 C   0  0  0  0  0  0  0  0  0  0  0  0
   -1.5655   -0.7768    0.0251 N   0  0  0  0  0  0  0  0  0  0  0  0
   -2.6024   -0.2454   -0.7099 C   0  0  0  0  0  0  0  0  0  0  0  0
   -3.6895   -1.1798   -1.2100 C   0  0  0  0  0  0  0  0  0  0  0  0
   -2.7190    0.9600   -1.0002 O   0  0  0  0  0  0  0  0  0  0  0  0
    2.2129   -1.2690    3.6488 H   0  0  0  0  0  0  0  0  0  0  0  0
    3.5886   -0.5061    2.6714 H   0  0  0  0  0  0  0  0  0  0  0  0
    2.6776   -1.9951    2.0899 H   0  0  0  0  0  0  0  0  0  0  0  0
    1.8410    0.7961    1.8390 H   0  0  0  0  0  0  0  0  0  0  0  0
   -0.9901    1.8056   -0.0884 H   0  0  0  0  0  0  0  0  0  0  0  0
    0.5516    1.7623    0.8692 H   0  0  0  0  0  0  0  0  0  0  0  0
   -1.5863   -1.8343    0.2038 H   0  0  0  0  0  0  0  0  0  0  0  0
   -4.0422   -0.7583   -2.1586 H   0  0  0  0  0  0  0  0  0  0  0  0
   -3.2077   -2.1576   -1.3471 H   0  0  0  0  0  0  0  0  0  0  0  0
   -4.5288   -1.2120   -0.4783 H   0  0  0  0  0  0  0  0  0  0  0  0
  1  2  1  0
  1 11  1  0
  1 12  1  0
  1 13  1  0
  2  3  1  0
  2 14  1  0
  3  4  2  0
  3  5  1  0
  5  6  2  3
  5  7  1  0
  6 15  1  0
  6 16  1  0
  7  8  1  0
  7 17  1  0
  8  9  1  0
  8 10  2  0
  9 18  1  0
  9 19  1  0
  9 20  1  0
M  END

> <RosettaParamsInstructions>
M  ROOT 7
M  POLY_N_BB 7
M  POLY_CA_BB 5
M  POLY_C_BB 3
M  POLY_O_BB 4
M  POLY_IGNORE 1 10 9 14 11 12 13 18 19 20
M  POLY_UPPER 2
M  POLY_LOWER 8
M  POLY_CHG 0
M  POLY_PROPERTIES PROTEIN POLYMER ALPHA_AA ALIPHATIC
M  END

$$$$
DHA_new
     RDKit          3D

 20 19  0  0  0  0  0  0  0  0999 V2000
    2.6466   -1.0531    2.5757 C   0  0  0  0  0  0  0  0  0  0  0  0
    1.6628   -0.2358    1.8872 N   0  0  0  0  0  0  0  0  0  0  0  0
    0.5588   -0.8389    1.3011 C   0  0  0  0  0  0  0  0  0  0  0  0
    0.4248   -2.0895    1.3744 O   0  0  0  0  0  0  0  0  0  0  0  0
   -0.4676   -0.0440    0.5899 C   0  0  0  0  0  0  0  0  0  0  0  0
   -0.3795    1.2542    0.4832 C   0  0  0  0  0  0  0  0  0  0  0  0
   -1.5609   -0.7487    0.0229 N   0  0  0  0  0  0  0  0  0  0  0  0
   -2.6325   -0.2247   -0.6821 C   0  0  0  0  0  0  0  0  0  0  0  0
   -3.6791   -1.1931   -1.1888 C   0  0  0  0  0  0  0  0  0  0  0  0
   -2.7922    0.9946   -0.9272 O   0  0  0  0  0  0  0  0  0  0  0  0
    2.1221   -1.6360    3.3439 H   0  0  0  0  0  0  0  0  0  0  0  0
    3.4767   -0.4562    2.9942 H   0  0  0  0  0  0  0  0  0  0  0  0
    3.1116   -1.7979    1.8765 H   0  0  0  0  0  0  0  0  0  0  0  0
    1.8268    0.7774    1.8608 H   0  0  0  0  0  0  0  0  0  0  0  0
   -1.0695    1.8922   -0.0076 H   0  0  0  0  0  0  0  0  0  0  0  0
    0.4737    1.7786    0.9290 H   0  0  0  0  0  0  0  0  0  0  0  0
   -1.5543   -1.8242    0.1588 H   0  0  0  0  0  0  0  0  0  0  0  0
   -4.6289   -0.6566   -1.1776 H   0  0  0  0  0  0  0  0  0  0  0  0
   -3.7264   -2.0428   -0.4737 H   0  0  0  0  0  0  0  0  0  0  0  0
   -3.4195   -1.5077   -2.1998 H   0  0  0  0  0  0  0  0  0  0  0  0
  1  2  1  0
  1 11  1  0
  1 12  1  0
  1 13  1  0
  2  3  1  0
  2 14  1  0
  3  4  2  0
  3  5  1  0
  5  6  2  3
  5  7  1  0
  6 15  1  0
  6 16  1  0
  7  8  1  0
  7 17  1  0
  8  9  1  0
  8 10  2  0
  9 18  1  0
  9 19  1  0
  9 20  1  0
M  END

> <RosettaParamsInstructions>
M  ROOT 7
M  POLY_N_BB 7
M  POLY_CA_BB 5
M  POLY_C_BB 3
M  POLY_O_BB 4
M  POLY_IGNORE 1 10 9 14 11 12 13 18 19 20
M  POLY_UPPER 2
M  POLY_LOWER 8
M  POLY_CHG 0
M  POLY_PROPERTIES PROTEIN POLYMER ALPHA_AA ALIPHATIC
M  END

$$$$
DHA_new
     RDKit          3D

 20 19  0  0  0  0  0  0  0  0999 V2000
    2.7119   -1.0803    2.4922 C   0  0  0  0  0  0  0  0  0  0  0  0
    1.6850   -0.2461    1.8456 N   0  0  0  0  0  0  0  0  0  0  0  0
    0.5649   -0.8309    1.2471 C   0  0  0  0  0  0  0  0  0  0  0  0
    0.4698   -2.0948    1.2830 O   0  0  0  0  0  0  0  0  0  0  0  0
   -0.4900   -0.0659    0.5895 C   0  0  0  0  0  0  0  0  0  0  0  0
   -0.3988    1.2369    0.5485 C   0  0  0  0  0  0  0  0  0  0  0  0
   -1.5688   -0.7683    0.0230 N   0  0  0  0  0  0  0  0  0  0  0  0
   -2.6654   -0.2210   -0.6429 C   0  0  0  0  0  0  0  0  0  0  0  0
   -3.7173   -1.1677   -1.1765 C   0  0  0  0  0  0  0  0  0  0  0  0
   -2.8341    0.9882   -0.8257 O   0  0  0  0  0  0  0  0  0  0  0  0
    2.3621   -2.1251    2.6088 H   0  0  0  0  0  0  0  0  0  0  0  0
    3.6429   -1.0487    1.9137 H   0  0  0  0  0  0  0  0  0  0  0  0
    2.8357   -0.6616    3.5165 H   0  0  0  0  0  0  0  0  0  0  0  0
    1.8760    0.7710    1.8822 H   0  0  0  0  0  0  0  0  0  0  0  0
   -1.1190    1.9052    0.0891 H   0  0  0  0  0  0  0  0  0  0  0  0
    0.4654    1.7346    1.0070 H   0  0  0  0  0  0  0  0  0  0  0  0
   -1.5169   -1.8295    0.1285 H   0  0  0  0  0  0  0  0  0  0  0  0
   -3.7829   -2.0151   -0.4611 H   0  0  0  0  0  0  0  0  0  0  0  0
   -4.6871   -0.6410   -1.1319 H   0  0  0  0  0  0  0  0  0  0  0  0
   -3.4397   -1.4923   -2.1957 H   0  0  0  0  0  0  0  0  0  0  0  0
  1  2  1  0
  1 11  1  0
  1 12  1  0
  1 13  1  0
  2  3  1  0
  2 14  1  0
  3  4  2  0
  3  5  1  0
  5  6  2  3
  5  7  1  0
  6 15  1  0
  6 16  1  0
  7  8  1  0
  7 17  1  0
  8  9  1  0
  8 10  2  0
  9 18  1  0
  9 19  1  0
  9 20  1  0
M  END

> <RosettaParamsInstructions>
M  ROOT 7
M  POLY_N_BB 7
M  POLY_CA_BB 5
M  POLY_C_BB 3
M  POLY_O_BB 4
M  POLY_IGNORE 1 10 9 14 11 12 13 18 19 20
M  POLY_UPPER 2
M  POLY_LOWER 8
M  POLY_CHG 0
M  POLY_PROPERTIES PROTEIN POLYMER ALPHA_AA ALIPHATIC
M  END

$$$$
DHA_new
     RDKit          3D

 20 19  0  0  0  0  0  0  0  0999 V2000
    2.6640   -1.0727    2.5935 C   0  0  0  0  0  0  0  0  0  0  0  0
    1.7092   -0.2355    1.8501 N   0  0  0  0  0  0  0  0  0  0  0  0
    0.5577   -0.8014    1.3094 C   0  0  0  0  0  0  0  0  0  0  0  0
    0.3568   -2.0432    1.4733 O   0  0  0  0  0  0  0  0  0  0  0  0
   -0.4735   -0.0766    0.5470 C   0  0  0  0  0  0  0  0  0  0  0  0
   -0.2964    1.1963    0.3624 C   0  0  0  0  0  0  0  0  0  0  0  0
   -1.6016   -0.7573    0.0459 N   0  0  0  0  0  0  0  0  0  0  0  0
   -2.6400   -0.2188   -0.6785 C   0  0  0  0  0  0  0  0  0  0  0  0
   -3.7559   -1.1453   -1.1172 C   0  0  0  0  0  0  0  0  0  0  0  0
   -2.7695    0.9551   -1.0189 O   0  0  0  0  0  0  0  0  0  0  0  0
    3.6937   -0.9369    2.2171 H   0  0  0  0  0  0  0  0  0  0  0  0
    2.3979   -2.1262    2.5028 H   0  0  0  0  0  0  0  0  0  0  0  0
    2.6282   -0.7594    3.6583 H   0  0  0  0  0  0  0  0  0  0  0  0
    1.9172    0.7628    1.7453 H   0  0  0  0  0  0  0  0  0  0  0  0
    0.5792    1.7368    0.7486 H   0  0  0  0  0  0  0  0  0  0  0  0
   -0.9975    1.8010   -0.1812 H   0  0  0  0  0  0  0  0  0  0  0  0
   -1.6309   -1.8025    0.2649 H   0  0  0  0  0  0  0  0  0  0  0  0
   -4.6806   -0.6016   -1.3058 H   0  0  0  0  0  0  0  0  0  0  0  0
   -3.3567   -1.6822   -1.9890 H   0  0  0  0  0  0  0  0  0  0  0  0
   -3.9078   -1.8449   -0.2870 H   0  0  0  0  0  0  0  0  0  0  0  0
  1  2  1  0
  1 11  1  0
  1 12  1  0
  1 13  1  0
  2  3  1  0
  2 14  1  0
  3  4  2  0
  3  5  1  0
  5  6  2  3
  5  7  1  0
  6 15  1  0
  6 16  1  0
  7  8  1  0
  7 17  1  0
  8  9  1  0
  8 10  2  0
  9 18  1  0
  9 19  1  0
  9 20  1  0
M  END

> <RosettaParamsInstructions>
M  ROOT 7
M  POLY_N_BB 7
M  POLY_CA_BB 5
M  POLY_C_BB 3
M  POLY_O_BB 4
M  POLY_IGNORE 1 10 9 14 11 12 13 18 19 20
M  POLY_UPPER 2
M  POLY_LOWER 8
M  POLY_CHG 0
M  POLY_PROPERTIES PROTEIN POLYMER ALPHA_AA ALIPHATIC
M  END

$$$$
DHA_new
     RDKit          3D

 20 19  0  0  0  0  0  0  0  0999 V2000
    2.6782   -1.0719    2.5404 C   0  0  0  0  0  0  0  0  0  0  0  0
    1.6535   -0.2361    1.8912 N   0  0  0  0  0  0  0  0  0  0  0  0
    0.5610   -0.8333    1.2652 C   0  0  0  0  0  0  0  0  0  0  0  0
    0.4840   -2.1089    1.2757 O   0  0  0  0  0  0  0  0  0  0  0  0
   -0.4748   -0.0396    0.6113 C   0  0  0  0  0  0  0  0  0  0  0  0
   -0.3980    1.2651    0.5994 C   0  0  0  0  0  0  0  0  0  0  0  0
   -1.5386   -0.7568    0.0077 N   0  0  0  0  0  0  0  0  0  0  0  0
   -2.6342   -0.2275   -0.6702 C   0  0  0  0  0  0  0  0  0  0  0  0
   -3.6611   -1.1898   -1.2409 C   0  0  0  0  0  0  0  0  0  0  0  0
   -2.8602    0.9859   -0.8590 O   0  0  0  0  0  0  0  0  0  0  0  0
    2.4199   -1.1526    3.6069 H   0  0  0  0  0  0  0  0  0  0  0  0
    3.6509   -0.5896    2.4330 H   0  0  0  0  0  0  0  0  0  0  0  0
    2.6440   -2.0915    2.1062 H   0  0  0  0  0  0  0  0  0  0  0  0
    1.8059    0.7734    1.9375 H   0  0  0  0  0  0  0  0  0  0  0  0
    0.4381    1.7781    1.0760 H   0  0  0  0  0  0  0  0  0  0  0  0
   -1.1278    1.9153    0.1346 H   0  0  0  0  0  0  0  0  0  0  0  0
   -1.4797   -1.8232    0.0902 H   0  0  0  0  0  0  0  0  0  0  0  0
   -4.6745   -0.7204   -1.1814 H   0  0  0  0  0  0  0  0  0  0  0  0
   -3.4051   -1.4258   -2.2781 H   0  0  0  0  0  0  0  0  0  0  0  0
   -3.6882   -2.1030   -0.6050 H   0  0  0  0  0  0  0  0  0  0  0  0
  1  2  1  0
  1 11  1  0
  1 12  1  0
  1 13  1  0
  2  3  1  0
  2 14  1  0
  3  4  2  0
  3  5  1  0
  5  6  2  3
  5  7  1  0
  6 15  1  0
  6 16  1  0
  7  8  1  0
  7 17  1  0
  8  9  1  0
  8 10  2  0
  9 18  1  0
  9 19  1  0
  9 20  1  0
M  END

> <RosettaParamsInstructions>
M  ROOT 7
M  POLY_N_BB 7
M  POLY_CA_BB 5
M  POLY_C_BB 3
M  POLY_O_BB 4
M  POLY_IGNORE 1 10 9 14 11 12 13 18 19 20
M  POLY_UPPER 2
M  POLY_LOWER 8
M  POLY_CHG 0
M  POLY_PROPERTIES PROTEIN POLYMER ALPHA_AA ALIPHATIC
M  END

$$$$
DHA_new
     RDKit          3D

 20 19  0  0  0  0  0  0  0  0999 V2000
    2.6741   -1.0662    2.5780 C   0  0  0  0  0  0  0  0  0  0  0  0
    1.7264   -0.2387    1.8641 N   0  0  0  0  0  0  0  0  0  0  0  0
    0.5754   -0.7851    1.2995 C   0  0  0  0  0  0  0  0  0  0  0  0
    0.4006   -2.0480    1.4438 O   0  0  0  0  0  0  0  0  0  0  0  0
   -0.4508   -0.0392    0.5558 C   0  0  0  0  0  0  0  0  0  0  0  0
   -0.2753    1.2473    0.4074 C   0  0  0  0  0  0  0  0  0  0  0  0
   -1.5696   -0.7506    0.0421 N   0  0  0  0  0  0  0  0  0  0  0  0
   -2.6465   -0.2590   -0.6816 C   0  0  0  0  0  0  0  0  0  0  0  0
   -3.7571   -1.1794   -1.1498 C   0  0  0  0  0  0  0  0  0  0  0  0
   -2.8113    0.9364   -1.0107 O   0  0  0  0  0  0  0  0  0  0  0  0
    2.2248   -2.0525    2.8637 H   0  0  0  0  0  0  0  0  0  0  0  0
    2.9594   -0.5838    3.5527 H   0  0  0  0  0  0  0  0  0  0  0  0
    3.5889   -1.2476    1.9945 H   0  0  0  0  0  0  0  0  0  0  0  0
    1.9424    0.7644    1.7946 H   0  0  0  0  0  0  0  0  0  0  0  0
   -0.9959    1.8446   -0.1292 H   0  0  0  0  0  0  0  0  0  0  0  0
    0.5854    1.7391    0.8133 H   0  0  0  0  0  0  0  0  0  0  0  0
   -1.5843   -1.8106    0.2401 H   0  0  0  0  0  0  0  0  0  0  0  0
   -4.6776   -0.9032   -0.5898 H   0  0  0  0  0  0  0  0  0  0  0  0
   -3.5272   -2.2228   -0.9276 H   0  0  0  0  0  0  0  0  0  0  0  0
   -3.9881   -0.9973   -2.2201 H   0  0  0  0  0  0  0  0  0  0  0  0
  1  2  1  0
  1 11  1  0
  1 12  1  0
  1 13  1  0
  2  3  1  0
  2 14  1  0
  3  4  2  0
  3  5  1  0
  5  6  2  3
  5  7  1  0
  6 15  1  0
  6 16  1  0
  7  8  1  0
  7 17  1  0
  8  9  1  0
  8 10  2  0
  9 18  1  0
  9 19  1  0
  9 20  1  0
M  END

> <RosettaParamsInstructions>
M  ROOT 7
M  POLY_N_BB 7
M  POLY_CA_BB 5
M  POLY_C_BB 3
M  POLY_O_BB 4
M  POLY_IGNORE 1 10 9 14 11 12 13 18 19 20
M  POLY_UPPER 2
M  POLY_LOWER 8
M  POLY_CHG 0
M  POLY_PROPERTIES PROTEIN POLYMER ALPHA_AA ALIPHATIC
M  END

$$$$
DHA_new
     RDKit          3D

 20 19  0  0  0  0  0  0  0  0999 V2000
    2.6153   -1.0427    2.6616 C   0  0  0  0  0  0  0  0  0  0  0  0
    1.6640   -0.2054    1.9213 N   0  0  0  0  0  0  0  0  0  0  0  0
    0.5299   -0.7997    1.3264 C   0  0  0  0  0  0  0  0  0  0  0  0
    0.3871   -2.0552    1.4648 O   0  0  0  0  0  0  0  0  0  0  0  0
   -0.4862   -0.0514    0.5620 C   0  0  0  0  0  0  0  0  0  0  0  0
   -0.3203    1.2299    0.4333 C   0  0  0  0  0  0  0  0  0  0  0  0
   -1.5589   -0.7818    0.0296 N   0  0  0  0  0  0  0  0  0  0  0  0
   -2.6138   -0.2554   -0.7188 C   0  0  0  0  0  0  0  0  0  0  0  0
   -3.6876   -1.1739   -1.2179 C   0  0  0  0  0  0  0  0  0  0  0  0
   -2.7403    0.9479   -1.0146 O   0  0  0  0  0  0  0  0  0  0  0  0
    3.0627   -0.4896    3.5002 H   0  0  0  0  0  0  0  0  0  0  0  0
    3.4506   -1.3534    1.9918 H   0  0  0  0  0  0  0  0  0  0  0  0
    2.1330   -1.9709    3.0299 H   0  0  0  0  0  0  0  0  0  0  0  0
    1.9132    0.8059    1.8929 H   0  0  0  0  0  0  0  0  0  0  0  0
   -1.0101    1.8627   -0.1082 H   0  0  0  0  0  0  0  0  0  0  0  0
    0.5435    1.7306    0.8777 H   0  0  0  0  0  0  0  0  0  0  0  0
   -1.6138   -1.8458    0.1878 H   0  0  0  0  0  0  0  0  0  0  0  0
   -3.8497   -0.9717   -2.3039 H   0  0  0  0  0  0  0  0  0  0  0  0
   -3.3747   -2.2254   -1.0719 H   0  0  0  0  0  0  0  0  0  0  0  0
   -4.6503   -1.0072   -0.7033 H   0  0  0  0  0  0  0  0  0  0  0  0
  1  2  1  0
  1 11  1  0
  1 12  1  0
  1 13  1  0
  2  3  1  0
  2 14  1  0
  3  4  2  0
  3  5  1  0
  5  6  2  3
  5  7  1  0
  6 15  1  0
  6 16  1  0
  7  8  1  0
  7 17  1  0
  8  9  1  0
  8 10  2  0
  9 18  1  0
  9 19  1  0
  9 20  1  0
M  END

> <RosettaParamsInstructions>
M  ROOT 7
M  POLY_N_BB 7
M  POLY_CA_BB 5
M  POLY_C_BB 3
M  POLY_O_BB 4
M  POLY_IGNORE 1 10 9 14 11 12 13 18 19 20
M  POLY_UPPER 2
M  POLY_LOWER 8
M  POLY_CHG 0
M  POLY_PROPERTIES PROTEIN POLYMER ALPHA_AA ALIPHATIC
M  END

$$$$
DHA_new
     RDKit          3D

 20 19  0  0  0  0  0  0  0  0999 V2000
    2.7232   -1.0766    2.5064 C   0  0  0  0  0  0  0  0  0  0  0  0
    1.6987   -0.2636    1.8707 N   0  0  0  0  0  0  0  0  0  0  0  0
    0.5644   -0.8201    1.2561 C   0  0  0  0  0  0  0  0  0  0  0  0
    0.4651   -2.0740    1.2761 O   0  0  0  0  0  0  0  0  0  0  0  0
   -0.5070   -0.0642    0.5971 C   0  0  0  0  0  0  0  0  0  0  0  0
   -0.4138    1.2229    0.5715 C   0  0  0  0  0  0  0  0  0  0  0  0
   -1.5800   -0.7635    0.0264 N   0  0  0  0  0  0  0  0  0  0  0  0
   -2.6623   -0.2005   -0.6271 C   0  0  0  0  0  0  0  0  0  0  0  0
   -3.7166   -1.1611   -1.1710 C   0  0  0  0  0  0  0  0  0  0  0  0
   -2.8606    1.0177   -0.8151 O   0  0  0  0  0  0  0  0  0  0  0  0
    3.0369   -0.5371    3.4196 H   0  0  0  0  0  0  0  0  0  0  0  0
    2.3159   -2.0877    2.7146 H   0  0  0  0  0  0  0  0  0  0  0  0
    3.5725   -1.1869    1.7852 H   0  0  0  0  0  0  0  0  0  0  0  0
    1.8309    0.7634    1.8834 H   0  0  0  0  0  0  0  0  0  0  0  0
    0.4188    1.7517    1.0153 H   0  0  0  0  0  0  0  0  0  0  0  0
   -1.1455    1.8473    0.1148 H   0  0  0  0  0  0  0  0  0  0  0  0
   -1.5547   -1.8370    0.1066 H   0  0  0  0  0  0  0  0  0  0  0  0
   -4.2883   -1.5001   -0.2921 H   0  0  0  0  0  0  0  0  0  0  0  0
   -4.3575   -0.6581   -1.8950 H   0  0  0  0  0  0  0  0  0  0  0  0
   -3.1465   -2.0246   -1.6027 H   0  0  0  0  0  0  0  0  0  0  0  0
  1  2  1  0
  1 11  1  0
  1 12  1  0
  1 13  1  0
  2  3  1  0
  2 14  1  0
  3  4  2  0
  3  5  1  0
  5  6  2  3
  5  7  1  0
  6 15  1  0
  6 16  1  0
  7  8  1  0
  7 17  1  0
  8  9  1  0
  8 10  2  0
  9 18  1  0
  9 19  1  0
  9 20  1  0
M  END

> <RosettaParamsInstructions>
M  ROOT 7
M  POLY_N_BB 7
M  POLY_CA_BB 5
M  POLY_C_BB 3
M  POLY_O_BB 4
M  POLY_IGNORE 1 10 9 14 11 12 13 18 19 20
M  POLY_UPPER 2
M  POLY_LOWER 8
M  POLY_CHG 0
M  POLY_PROPERTIES PROTEIN POLYMER ALPHA_AA ALIPHATIC
M  END

$$$$
DHA_new
     RDKit          3D

 20 19  0  0  0  0  0  0  0  0999 V2000
    2.2096   -1.5159    2.5634 C   0  0  0  0  0  0  0  0  0  0  0  0
    1.0085   -1.2296    1.7564 N   0  0  0  0  0  0  0  0  0  0  0  0
    0.8552    0.0852    1.2876 C   0  0  0  0  0  0  0  0  0  0  0  0
    1.7329    0.9460    1.5712 O   0  0  0  0  0  0  0  0  0  0  0  0
   -0.3217    0.4871    0.4621 C   0  0  0  0  0  0  0  0  0  0  0  0
   -0.3910    1.7425    0.0611 C   0  0  0  0  0  0  0  0  0  0  0  0
   -1.2738   -0.4909    0.1672 N   0  0  0  0  0  0  0  0  0  0  0  0
   -2.4314   -0.2685   -0.5953 C   0  0  0  0  0  0  0  0  0  0  0  0
   -3.3815   -1.4185   -0.8400 C   0  0  0  0  0  0  0  0  0  0  0  0
   -2.8032    0.8034   -1.1264 O   0  0  0  0  0  0  0  0  0  0  0  0
    2.6427   -0.5764    2.9654 H   0  0  0  0  0  0  0  0  0  0  0  0
    1.9747   -2.2032    3.3821 H   0  0  0  0  0  0  0  0  0  0  0  0
    2.9389   -1.9614    1.8568 H   0  0  0  0  0  0  0  0  0  0  0  0
    0.3686   -2.0333    1.6000 H   0  0  0  0  0  0  0  0  0  0  0  0
    0.3983    2.4611    0.3320 H   0  0  0  0  0  0  0  0  0  0  0  0
   -1.2016    2.0955   -0.5293 H   0  0  0  0  0  0  0  0  0  0  0  0
   -1.1566   -1.4819    0.5214 H   0  0  0  0  0  0  0  0  0  0  0  0
   -3.6228   -1.4087   -1.9099 H   0  0  0  0  0  0  0  0  0  0  0  0
   -2.9014   -2.3877   -0.6136 H   0  0  0  0  0  0  0  0  0  0  0  0
   -4.2510   -1.2972   -0.1713 H   0  0  0  0  0  0  0  0  0  0  0  0
  1  2  1  0
  1 11  1  0
  1 12  1  0
  1 13  1  0
  2  3  1  0
  2 14  1  0
  3  4  2  0
  3  5  1  0
  5  6  2  3
  5  7  1  0
  6 15  1  0
  6 16  1  0
  7  8  1  0
  7 17  1  0
  8  9  1  0
  8 10  2  0
  9 18  1  0
  9 19  1  0
  9 20  1  0
M  END

> <RosettaParamsInstructions>
M  ROOT 7
M  POLY_N_BB 7
M  POLY_CA_BB 5
M  POLY_C_BB 3
M  POLY_O_BB 4
M  POLY_IGNORE 1 10 9 14 11 12 13 18 19 20
M  POLY_UPPER 2
M  POLY_LOWER 8
M  POLY_CHG 0
M  POLY_PROPERTIES PROTEIN POLYMER ALPHA_AA ALIPHATIC
M  END

$$$$
DHA_new
     RDKit          3D

 20 19  0  0  0  0  0  0  0  0999 V2000
    2.7058   -1.0578    2.5280 C   0  0  0  0  0  0  0  0  0  0  0  0
    1.7037   -0.2299    1.8553 N   0  0  0  0  0  0  0  0  0  0  0  0
    0.5698   -0.8354    1.2737 C   0  0  0  0  0  0  0  0  0  0  0  0
    0.4376   -2.1025    1.3451 O   0  0  0  0  0  0  0  0  0  0  0  0
   -0.4647   -0.0724    0.5900 C   0  0  0  0  0  0  0  0  0  0  0  0
   -0.3423    1.2266    0.5092 C   0  0  0  0  0  0  0  0  0  0  0  0
   -1.5597   -0.7479    0.0387 N   0  0  0  0  0  0  0  0  0  0  0  0
   -2.6616   -0.2495   -0.6531 C   0  0  0  0  0  0  0  0  0  0  0  0
   -3.7483   -1.1706   -1.1709 C   0  0  0  0  0  0  0  0  0  0  0  0
   -2.8475    0.9491   -0.8995 O   0  0  0  0  0  0  0  0  0  0  0  0
    3.1419   -0.5078    3.3789 H   0  0  0  0  0  0  0  0  0  0  0  0
    2.1390   -1.9238    2.9611 H   0  0  0  0  0  0  0  0  0  0  0  0
    3.4797   -1.3912    1.8314 H   0  0  0  0  0  0  0  0  0  0  0  0
    1.9037    0.7737    1.8536 H   0  0  0  0  0  0  0  0  0  0  0  0
   -1.0588    1.8653    0.0227 H   0  0  0  0  0  0  0  0  0  0  0  0
    0.5076    1.7662    0.9351 H   0  0  0  0  0  0  0  0  0  0  0  0
   -1.5442   -1.8160    0.1720 H   0  0  0  0  0  0  0  0  0  0  0  0
   -4.7014   -0.7091   -0.8572 H   0  0  0  0  0  0  0  0  0  0  0  0
   -3.6694   -1.2324   -2.2598 H   0  0  0  0  0  0  0  0  0  0  0  0
   -3.5976   -2.1868   -0.7135 H   0  0  0  0  0  0  0  0  0  0  0  0
  1  2  1  0
  1 11  1  0
  1 12  1  0
  1 13  1  0
  2  3  1  0
  2 14  1  0
  3  4  2  0
  3  5  1  0
  5  6  2  3
  5  7  1  0
  6 15  1  0
  6 16  1  0
  7  8  1  0
  7 17  1  0
  8  9  1  0
  8 10  2  0
  9 18  1  0
  9 19  1  0
  9 20  1  0
M  END

> <RosettaParamsInstructions>
M  ROOT 7
M  POLY_N_BB 7
M  POLY_CA_BB 5
M  POLY_C_BB 3
M  POLY_O_BB 4
M  POLY_IGNORE 1 10 9 14 11 12 13 18 19 20
M  POLY_UPPER 2
M  POLY_LOWER 8
M  POLY_CHG 0
M  POLY_PROPERTIES PROTEIN POLYMER ALPHA_AA ALIPHATIC
M  END

$$$$
DHA_new
     RDKit          3D

 20 19  0  0  0  0  0  0  0  0999 V2000
    2.6503   -1.0860    2.5535 C   0  0  0  0  0  0  0  0  0  0  0  0
    1.6866   -0.2257    1.8552 N   0  0  0  0  0  0  0  0  0  0  0  0
    0.5583   -0.8323    1.2912 C   0  0  0  0  0  0  0  0  0  0  0  0
    0.4282   -2.0996    1.4142 O   0  0  0  0  0  0  0  0  0  0  0  0
   -0.4429   -0.0606    0.5849 C   0  0  0  0  0  0  0  0  0  0  0  0
   -0.3169    1.2188    0.4575 C   0  0  0  0  0  0  0  0  0  0  0  0
   -1.5423   -0.7641    0.0529 N   0  0  0  0  0  0  0  0  0  0  0  0
   -2.6290   -0.2473   -0.6633 C   0  0  0  0  0  0  0  0  0  0  0  0
   -3.7210   -1.1756   -1.1556 C   0  0  0  0  0  0  0  0  0  0  0  0
   -2.7705    0.9652   -0.9365 O   0  0  0  0  0  0  0  0  0  0  0  0
    3.6467   -0.6448    2.3404 H   0  0  0  0  0  0  0  0  0  0  0  0
    2.5650   -2.1231    2.1780 H   0  0  0  0  0  0  0  0  0  0  0  0
    2.3814   -1.0383    3.6259 H   0  0  0  0  0  0  0  0  0  0  0  0
    1.8791    0.8116    1.8048 H   0  0  0  0  0  0  0  0  0  0  0  0
   -1.0257    1.8403   -0.0543 H   0  0  0  0  0  0  0  0  0  0  0  0
    0.5428    1.7845    0.8710 H   0  0  0  0  0  0  0  0  0  0  0  0
   -1.5929   -1.8387    0.1922 H   0  0  0  0  0  0  0  0  0  0  0  0
   -4.6685   -0.6347   -1.0648 H   0  0  0  0  0  0  0  0  0  0  0  0
   -3.4649   -1.4751   -2.1736 H   0  0  0  0  0  0  0  0  0  0  0  0
   -3.7706   -2.0266   -0.4328 H   0  0  0  0  0  0  0  0  0  0  0  0
  1  2  1  0
  1 11  1  0
  1 12  1  0
  1 13  1  0
  2  3  1  0
  2 14  1  0
  3  4  2  0
  3  5  1  0
  5  6  2  3
  5  7  1  0
  6 15  1  0
  6 16  1  0
  7  8  1  0
  7 17  1  0
  8  9  1  0
  8 10  2  0
  9 18  1  0
  9 19  1  0
  9 20  1  0
M  END

> <RosettaParamsInstructions>
M  ROOT 7
M  POLY_N_BB 7
M  POLY_CA_BB 5
M  POLY_C_BB 3
M  POLY_O_BB 4
M  POLY_IGNORE 1 10 9 14 11 12 13 18 19 20
M  POLY_UPPER 2
M  POLY_LOWER 8
M  POLY_CHG 0
M  POLY_PROPERTIES PROTEIN POLYMER ALPHA_AA ALIPHATIC
M  END

$$$$
DHA_new
     RDKit          3D

 20 19  0  0  0  0  0  0  0  0999 V2000
    2.6851   -1.0502    2.5931 C   0  0  0  0  0  0  0  0  0  0  0  0
    1.6965   -0.2562    1.8671 N   0  0  0  0  0  0  0  0  0  0  0  0
    0.5605   -0.8269    1.3098 C   0  0  0  0  0  0  0  0  0  0  0  0
    0.3852   -2.0742    1.4403 O   0  0  0  0  0  0  0  0  0  0  0  0
   -0.4807   -0.0835    0.5625 C   0  0  0  0  0  0  0  0  0  0  0  0
   -0.3332    1.2085    0.4074 C   0  0  0  0  0  0  0  0  0  0  0  0
   -1.5902   -0.7946    0.0469 N   0  0  0  0  0  0  0  0  0  0  0  0
   -2.6324   -0.2524   -0.6634 C   0  0  0  0  0  0  0  0  0  0  0  0
   -3.7591   -1.1341   -1.1571 C   0  0  0  0  0  0  0  0  0  0  0  0
   -2.7465    0.9438   -0.9536 O   0  0  0  0  0  0  0  0  0  0  0  0
    2.2542   -2.0216    2.9104 H   0  0  0  0  0  0  0  0  0  0  0  0
    3.0456   -0.4840    3.4977 H   0  0  0  0  0  0  0  0  0  0  0  0
    3.5437   -1.2339    1.9241 H   0  0  0  0  0  0  0  0  0  0  0  0
    1.8994    0.7461    1.7985 H   0  0  0  0  0  0  0  0  0  0  0  0
    0.5447    1.6902    0.8304 H   0  0  0  0  0  0  0  0  0  0  0  0
   -0.9960    1.8770   -0.1049 H   0  0  0  0  0  0  0  0  0  0  0  0
   -1.6181   -1.8506    0.2279 H   0  0  0  0  0  0  0  0  0  0  0  0
   -3.4039   -2.1947   -1.2343 H   0  0  0  0  0  0  0  0  0  0  0  0
   -4.0939   -0.7763   -2.1476 H   0  0  0  0  0  0  0  0  0  0  0  0
   -4.5672   -1.0846   -0.4142 H   0  0  0  0  0  0  0  0  0  0  0  0
  1  2  1  0
  1 11  1  0
  1 12  1  0
  1 13  1  0
  2  3  1  0
  2 14  1  0
  3  4  2  0
  3  5  1  0
  5  6  2  3
  5  7  1  0
  6 15  1  0
  6 16  1  0
  7  8  1  0
  7 17  1  0
  8  9  1  0
  8 10  2  0
  9 18  1  0
  9 19  1  0
  9 20  1  0
M  END

> <RosettaParamsInstructions>
M  ROOT 7
M  POLY_N_BB 7
M  POLY_CA_BB 5
M  POLY_C_BB 3
M  POLY_O_BB 4
M  POLY_IGNORE 1 10 9 14 11 12 13 18 19 20
M  POLY_UPPER 2
M  POLY_LOWER 8
M  POLY_CHG 0
M  POLY_PROPERTIES PROTEIN POLYMER ALPHA_AA ALIPHATIC
M  END

$$$$
DHA_new
     RDKit          3D

 20 19  0  0  0  0  0  0  0  0999 V2000
    2.6710   -1.0573    2.5965 C   0  0  0  0  0  0  0  0  0  0  0  0
    1.7043   -0.2514    1.8246 N   0  0  0  0  0  0  0  0  0  0  0  0
    0.5448   -0.8464    1.3181 C   0  0  0  0  0  0  0  0  0  0  0  0
    0.3176   -2.0850    1.5200 O   0  0  0  0  0  0  0  0  0  0  0  0
   -0.4408   -0.1023    0.5520 C   0  0  0  0  0  0  0  0  0  0  0  0
   -0.2649    1.1688    0.3119 C   0  0  0  0  0  0  0  0  0  0  0  0
   -1.5787   -0.7857    0.0816 N   0  0  0  0  0  0  0  0  0  0  0  0
   -2.6071   -0.2423   -0.6552 C   0  0  0  0  0  0  0  0  0  0  0  0
   -3.7568   -1.1338   -1.0765 C   0  0  0  0  0  0  0  0  0  0  0  0
   -2.7079    0.9322   -1.0283 O   0  0  0  0  0  0  0  0  0  0  0  0
    3.3357   -1.5552    1.8717 H   0  0  0  0  0  0  0  0  0  0  0  0
    2.1336   -1.7795    3.2294 H   0  0  0  0  0  0  0  0  0  0  0  0
    3.2406   -0.3672    3.2456 H   0  0  0  0  0  0  0  0  0  0  0  0
    1.9052    0.7464    1.6721 H   0  0  0  0  0  0  0  0  0  0  0  0
    0.6208    1.7152    0.6742 H   0  0  0  0  0  0  0  0  0  0  0  0
   -0.9324    1.8060   -0.2427 H   0  0  0  0  0  0  0  0  0  0  0  0
   -1.6641   -1.8332    0.3137 H   0  0  0  0  0  0  0  0  0  0  0  0
   -3.7625   -1.2369   -2.1832 H   0  0  0  0  0  0  0  0  0  0  0  0
   -4.6762   -0.6351   -0.7269 H   0  0  0  0  0  0  0  0  0  0  0  0
   -3.6886   -2.1098   -0.5577 H   0  0  0  0  0  0  0  0  0  0  0  0
  1  2  1  0
  1 11  1  0
  1 12  1  0
  1 13  1  0
  2  3  1  0
  2 14  1  0
  3  4  2  0
  3  5  1  0
  5  6  2  3
  5  7  1  0
  6 15  1  0
  6 16  1  0
  7  8  1  0
  7 17  1  0
  8  9  1  0
  8 10  2  0
  9 18  1  0
  9 19  1  0
  9 20  1  0
M  END

> <RosettaParamsInstructions>
M  ROOT 7
M  POLY_N_BB 7
M  POLY_CA_BB 5
M  POLY_C_BB 3
M  POLY_O_BB 4
M  POLY_IGNORE 1 10 9 14 11 12 13 18 19 20
M  POLY_UPPER 2
M  POLY_LOWER 8
M  POLY_CHG 0
M  POLY_PROPERTIES PROTEIN POLYMER ALPHA_AA ALIPHATIC
M  END

$$$$
DHA_new
     RDKit          3D

 20 19  0  0  0  0  0  0  0  0999 V2000
    2.6025   -1.0499    2.6490 C   0  0  0  0  0  0  0  0  0  0  0  0
    1.6797   -0.2055    1.8668 N   0  0  0  0  0  0  0  0  0  0  0  0
    0.5319   -0.8069    1.3404 C   0  0  0  0  0  0  0  0  0  0  0  0
    0.3407   -2.0533    1.5625 O   0  0  0  0  0  0  0  0  0  0  0  0
   -0.4422   -0.0614    0.5541 C   0  0  0  0  0  0  0  0  0  0  0  0
   -0.2219    1.2092    0.3429 C   0  0  0  0  0  0  0  0  0  0  0  0
   -1.5927   -0.7663    0.0540 N   0  0  0  0  0  0  0  0  0  0  0  0
   -2.6327   -0.2521   -0.7093 C   0  0  0  0  0  0  0  0  0  0  0  0
   -3.7636   -1.1584   -1.1432 C   0  0  0  0  0  0  0  0  0  0  0  0
   -2.7153    0.9349   -1.0797 O   0  0  0  0  0  0  0  0  0  0  0  0
    2.7172   -0.6017    3.6397 H   0  0  0  0  0  0  0  0  0  0  0  0
    2.2299   -2.0894    2.7222 H   0  0  0  0  0  0  0  0  0  0  0  0
    3.5840   -1.0426    2.1452 H   0  0  0  0  0  0  0  0  0  0  0  0
    1.9825    0.7857    1.7807 H   0  0  0  0  0  0  0  0  0  0  0  0
    0.6584    1.6746    0.7456 H   0  0  0  0  0  0  0  0  0  0  0  0
   -0.8939    1.8378   -0.2305 H   0  0  0  0  0  0  0  0  0  0  0  0
   -1.6220   -1.8094    0.3184 H   0  0  0  0  0  0  0  0  0  0  0  0
   -3.5067   -1.6449   -2.1093 H   0  0  0  0  0  0  0  0  0  0  0  0
   -3.8682   -1.9739   -0.4053 H   0  0  0  0  0  0  0  0  0  0  0  0
   -4.6741   -0.5787   -1.3033 H   0  0  0  0  0  0  0  0  0  0  0  0
  1  2  1  0
  1 11  1  0
  1 12  1  0
  1 13  1  0
  2  3  1  0
  2 14  1  0
  3  4  2  0
  3  5  1  0
  5  6  2  3
  5  7  1  0
  6 15  1  0
  6 16  1  0
  7  8  1  0
  7 17  1  0
  8  9  1  0
  8 10  2  0
  9 18  1  0
  9 19  1  0
  9 20  1  0
M  END

> <RosettaParamsInstructions>
M  ROOT 7
M  POLY_N_BB 7
M  POLY_CA_BB 5
M  POLY_C_BB 3
M  POLY_O_BB 4
M  POLY_IGNORE 1 10 9 14 11 12 13 18 19 20
M  POLY_UPPER 2
M  POLY_LOWER 8
M  POLY_CHG 0
M  POLY_PROPERTIES PROTEIN POLYMER ALPHA_AA ALIPHATIC
M  END

$$$$
DHA_new
     RDKit          3D

 20 19  0  0  0  0  0  0  0  0999 V2000
    2.6834   -1.0624    2.5757 C   0  0  0  0  0  0  0  0  0  0  0  0
    1.6893   -0.2354    1.8587 N   0  0  0  0  0  0  0  0  0  0  0  0
    0.5564   -0.8182    1.2948 C   0  0  0  0  0  0  0  0  0  0  0  0
    0.4143   -2.0805    1.4215 O   0  0  0  0  0  0  0  0  0  0  0  0
   -0.4482   -0.0494    0.5813 C   0  0  0  0  0  0  0  0  0  0  0  0
   -0.2938    1.2438    0.4565 C   0  0  0  0  0  0  0  0  0  0  0  0
   -1.5611   -0.7243    0.0443 N   0  0  0  0  0  0  0  0  0  0  0  0
   -2.6537   -0.2361   -0.6740 C   0  0  0  0  0  0  0  0  0  0  0  0
   -3.7359   -1.1848   -1.1477 C   0  0  0  0  0  0  0  0  0  0  0  0
   -2.7746    0.9769   -0.9460 O   0  0  0  0  0  0  0  0  0  0  0  0
    3.6792   -0.6139    2.5132 H   0  0  0  0  0  0  0  0  0  0  0  0
    2.3263   -1.1387    3.6149 H   0  0  0  0  0  0  0  0  0  0  0  0
    2.6086   -2.0737    2.1230 H   0  0  0  0  0  0  0  0  0  0  0  0
    1.8956    0.7741    1.8115 H   0  0  0  0  0  0  0  0  0  0  0  0
   -1.0148    1.8492   -0.0644 H   0  0  0  0  0  0  0  0  0  0  0  0
    0.5715    1.7521    0.8768 H   0  0  0  0  0  0  0  0  0  0  0  0
   -1.5462   -1.7930    0.2305 H   0  0  0  0  0  0  0  0  0  0  0  0
   -4.6816   -0.9942   -0.6183 H   0  0  0  0  0  0  0  0  0  0  0  0
   -3.3974   -2.2124   -0.9811 H   0  0  0  0  0  0  0  0  0  0  0  0
   -3.9241   -1.0315   -2.2303 H   0  0  0  0  0  0  0  0  0  0  0  0
  1  2  1  0
  1 11  1  0
  1 12  1  0
  1 13  1  0
  2  3  1  0
  2 14  1  0
  3  4  2  0
  3  5  1  0
  5  6  2  3
  5  7  1  0
  6 15  1  0
  6 16  1  0
  7  8  1  0
  7 17  1  0
  8  9  1  0
  8 10  2  0
  9 18  1  0
  9 19  1  0
  9 20  1  0
M  END

> <RosettaParamsInstructions>
M  ROOT 7
M  POLY_N_BB 7
M  POLY_CA_BB 5
M  POLY_C_BB 3
M  POLY_O_BB 4
M  POLY_IGNORE 1 10 9 14 11 12 13 18 19 20
M  POLY_UPPER 2
M  POLY_LOWER 8
M  POLY_CHG 0
M  POLY_PROPERTIES PROTEIN POLYMER ALPHA_AA ALIPHATIC
M  END

$$$$
DHA_new
     RDKit          3D

 20 19  0  0  0  0  0  0  0  0999 V2000
    2.6546   -1.0848    2.5669 C   0  0  0  0  0  0  0  0  0  0  0  0
    1.6882   -0.2324    1.8638 N   0  0  0  0  0  0  0  0  0  0  0  0
    0.5451   -0.7915    1.2841 C   0  0  0  0  0  0  0  0  0  0  0  0
    0.3794   -2.0396    1.3878 O   0  0  0  0  0  0  0  0  0  0  0  0
   -0.4748   -0.0174    0.5622 C   0  0  0  0  0  0  0  0  0  0  0  0
   -0.3169    1.2845    0.4453 C   0  0  0  0  0  0  0  0  0  0  0  0
   -1.5687   -0.7250    0.0353 N   0  0  0  0  0  0  0  0  0  0  0  0
   -2.6650   -0.2321   -0.6861 C   0  0  0  0  0  0  0  0  0  0  0  0
   -3.7288   -1.2202   -1.1503 C   0  0  0  0  0  0  0  0  0  0  0  0
   -2.7977    0.9718   -0.9575 O   0  0  0  0  0  0  0  0  0  0  0  0
    3.6099   -1.0189    2.0332 H   0  0  0  0  0  0  0  0  0  0  0  0
    2.7765   -0.7472    3.6140 H   0  0  0  0  0  0  0  0  0  0  0  0
    2.2901   -2.1298    2.5868 H   0  0  0  0  0  0  0  0  0  0  0  0
    1.9313    0.7700    1.8449 H   0  0  0  0  0  0  0  0  0  0  0  0
   -1.0443    1.8647   -0.0741 H   0  0  0  0  0  0  0  0  0  0  0  0
    0.5724    1.7668    0.8886 H   0  0  0  0  0  0  0  0  0  0  0  0
   -1.5881   -1.7919    0.1955 H   0  0  0  0  0  0  0  0  0  0  0  0
   -3.4198   -1.6562   -2.1071 H   0  0  0  0  0  0  0  0  0  0  0  0
   -4.6728   -0.6385   -1.2242 H   0  0  0  0  0  0  0  0  0  0  0  0
   -3.7771   -1.9846   -0.3683 H   0  0  0  0  0  0  0  0  0  0  0  0
  1  2  1  0
  1 11  1  0
  1 12  1  0
  1 13  1  0
  2  3  1  0
  2 14  1  0
  3  4  2  0
  3  5  1  0
  5  6  2  3
  5  7  1  0
  6 15  1  0
  6 16  1  0
  7  8  1  0
  7 17  1  0
  8  9  1  0
  8 10  2  0
  9 18  1  0
  9 19  1  0
  9 20  1  0
M  END

> <RosettaParamsInstructions>
M  ROOT 7
M  POLY_N_BB 7
M  POLY_CA_BB 5
M  POLY_C_BB 3
M  POLY_O_BB 4
M  POLY_IGNORE 1 10 9 14 11 12 13 18 19 20
M  POLY_UPPER 2
M  POLY_LOWER 8
M  POLY_CHG 0
M  POLY_PROPERTIES PROTEIN POLYMER ALPHA_AA ALIPHATIC
M  END

$$$$
DHA_new
     RDKit          3D

 20 19  0  0  0  0  0  0  0  0999 V2000
    2.2434   -1.5811    2.5058 C   0  0  0  0  0  0  0  0  0  0  0  0
    1.0600   -1.1923    1.7239 N   0  0  0  0  0  0  0  0  0  0  0  0
    0.9188    0.1035    1.2147 C   0  0  0  0  0  0  0  0  0  0  0  0
    1.8129    0.9513    1.4255 O   0  0  0  0  0  0  0  0  0  0  0  0
   -0.2714    0.4786    0.4337 C   0  0  0  0  0  0  0  0  0  0  0  0
   -0.3578    1.7214   -0.0277 C   0  0  0  0  0  0  0  0  0  0  0  0
   -1.2951   -0.4448    0.1766 N   0  0  0  0  0  0  0  0  0  0  0  0
   -2.4772   -0.2343   -0.5453 C   0  0  0  0  0  0  0  0  0  0  0  0
   -3.4788   -1.3463   -0.7274 C   0  0  0  0  0  0  0  0  0  0  0  0
   -2.8093    0.8383   -1.0854 O   0  0  0  0  0  0  0  0  0  0  0  0
    2.6887   -2.4853    2.0487 H   0  0  0  0  0  0  0  0  0  0  0  0
    1.8559   -1.8893    3.4990 H   0  0  0  0  0  0  0  0  0  0  0  0
    2.9523   -0.7476    2.5943 H   0  0  0  0  0  0  0  0  0  0  0  0
    0.3807   -1.9714    1.6087 H   0  0  0  0  0  0  0  0  0  0  0  0
   -1.1527    2.1186   -0.5982 H   0  0  0  0  0  0  0  0  0  0  0  0
    0.4571    2.4213    0.1886 H   0  0  0  0  0  0  0  0  0  0  0  0
   -1.1448   -1.4145    0.5822 H   0  0  0  0  0  0  0  0  0  0  0  0
   -2.8596   -2.2780   -0.8255 H   0  0  0  0  0  0  0  0  0  0  0  0
   -4.0577   -1.2370   -1.6447 H   0  0  0  0  0  0  0  0  0  0  0  0
   -4.0718   -1.4633    0.1934 H   0  0  0  0  0  0  0  0  0  0  0  0
  1  2  1  0
  1 11  1  0
  1 12  1  0
  1 13  1  0
  2  3  1  0
  2 14  1  0
  3  4  2  0
  3  5  1  0
  5  6  2  3
  5  7  1  0
  6 15  1  0
  6 16  1  0
  7  8  1  0
  7 17  1  0
  8  9  1  0
  8 10  2  0
  9 18  1  0
  9 19  1  0
  9 20  1  0
M  END

> <RosettaParamsInstructions>
M  ROOT 7
M  POLY_N_BB 7
M  POLY_CA_BB 5
M  POLY_C_BB 3
M  POLY_O_BB 4
M  POLY_IGNORE 1 10 9 14 11 12 13 18 19 20
M  POLY_UPPER 2
M  POLY_LOWER 8
M  POLY_CHG 0
M  POLY_PROPERTIES PROTEIN POLYMER ALPHA_AA ALIPHATIC
M  END

$$$$
DHA_new
     RDKit          3D

 20 19  0  0  0  0  0  0  0  0999 V2000
    2.6190   -1.0302    2.6615 C   0  0  0  0  0  0  0  0  0  0  0  0
    1.6782   -0.2288    1.8555 N   0  0  0  0  0  0  0  0  0  0  0  0
    0.5301   -0.8353    1.3464 C   0  0  0  0  0  0  0  0  0  0  0  0
    0.3196   -2.0699    1.5894 O   0  0  0  0  0  0  0  0  0  0  0  0
   -0.4624   -0.0951    0.5278 C   0  0  0  0  0  0  0  0  0  0  0  0
   -0.2584    1.1626    0.2740 C   0  0  0  0  0  0  0  0  0  0  0  0
   -1.5930   -0.7796    0.0525 N   0  0  0  0  0  0  0  0  0  0  0  0
   -2.6018   -0.2397   -0.7160 C   0  0  0  0  0  0  0  0  0  0  0  0
   -3.7457   -1.1509   -1.1315 C   0  0  0  0  0  0  0  0  0  0  0  0
   -2.6711    0.9331   -1.1088 O   0  0  0  0  0  0  0  0  0  0  0  0
    2.1139   -1.9602    2.9803 H   0  0  0  0  0  0  0  0  0  0  0  0
    2.9227   -0.4115    3.5400 H   0  0  0  0  0  0  0  0  0  0  0  0
    3.4889   -1.3132    2.0574 H   0  0  0  0  0  0  0  0  0  0  0  0
    1.9736    0.7546    1.7388 H   0  0  0  0  0  0  0  0  0  0  0  0
   -0.8900    1.8036   -0.2978 H   0  0  0  0  0  0  0  0  0  0  0  0
    0.6445    1.6537    0.6702 H   0  0  0  0  0  0  0  0  0  0  0  0
   -1.6576   -1.8140    0.3233 H   0  0  0  0  0  0  0  0  0  0  0  0
   -3.9005   -0.9989   -2.2106 H   0  0  0  0  0  0  0  0  0  0  0  0
   -3.5155   -2.2005   -0.9014 H   0  0  0  0  0  0  0  0  0  0  0  0
   -4.6010   -0.8320   -0.5103 H   0  0  0  0  0  0  0  0  0  0  0  0
  1  2  1  0
  1 11  1  0
  1 12  1  0
  1 13  1  0
  2  3  1  0
  2 14  1  0
  3  4  2  0
  3  5  1  0
  5  6  2  3
  5  7  1  0
  6 15  1  0
  6 16  1  0
  7  8  1  0
  7 17  1  0
  8  9  1  0
  8 10  2  0
  9 18  1  0
  9 19  1  0
  9 20  1  0
M  END

> <RosettaParamsInstructions>
M  ROOT 7
M  POLY_N_BB 7
M  POLY_CA_BB 5
M  POLY_C_BB 3
M  POLY_O_BB 4
M  POLY_IGNORE 1 10 9 14 11 12 13 18 19 20
M  POLY_UPPER 2
M  POLY_LOWER 8
M  POLY_CHG 0
M  POLY_PROPERTIES PROTEIN POLYMER ALPHA_AA ALIPHATIC
M  END

$$$$
DHA_new
     RDKit          3D

 20 19  0  0  0  0  0  0  0  0999 V2000
    2.6181   -1.0535    2.6565 C   0  0  0  0  0  0  0  0  0  0  0  0
    1.6901   -0.2485    1.8676 N   0  0  0  0  0  0  0  0  0  0  0  0
    0.5461   -0.8167    1.3540 C   0  0  0  0  0  0  0  0  0  0  0  0
    0.3002   -2.0314    1.5648 O   0  0  0  0  0  0  0  0  0  0  0  0
   -0.4398   -0.0759    0.5495 C   0  0  0  0  0  0  0  0  0  0  0  0
   -0.2034    1.1928    0.3172 C   0  0  0  0  0  0  0  0  0  0  0  0
   -1.5965   -0.7432    0.0574 N   0  0  0  0  0  0  0  0  0  0  0  0
   -2.6454   -0.2607   -0.7085 C   0  0  0  0  0  0  0  0  0  0  0  0
   -3.7965   -1.1330   -1.1372 C   0  0  0  0  0  0  0  0  0  0  0  0
   -2.7131    0.9258   -1.0977 O   0  0  0  0  0  0  0  0  0  0  0  0
    2.1210   -1.9242    3.0850 H   0  0  0  0  0  0  0  0  0  0  0  0
    3.0101   -0.4258    3.4909 H   0  0  0  0  0  0  0  0  0  0  0  0
    3.5094   -1.3324    2.0474 H   0  0  0  0  0  0  0  0  0  0  0  0
    1.9587    0.7301    1.7397 H   0  0  0  0  0  0  0  0  0  0  0  0
    0.6911    1.6935    0.7023 H   0  0  0  0  0  0  0  0  0  0  0  0
   -0.9052    1.7716   -0.2705 H   0  0  0  0  0  0  0  0  0  0  0  0
   -1.6490   -1.7903    0.3341 H   0  0  0  0  0  0  0  0  0  0  0  0
   -3.9641   -0.9136   -2.2100 H   0  0  0  0  0  0  0  0  0  0  0  0
   -3.4662   -2.2052   -1.0979 H   0  0  0  0  0  0  0  0  0  0  0  0
   -4.6719   -1.0115   -0.5039 H   0  0  0  0  0  0  0  0  0  0  0  0
  1  2  1  0
  1 11  1  0
  1 12  1  0
  1 13  1  0
  2  3  1  0
  2 14  1  0
  3  4  2  0
  3  5  1  0
  5  6  2  3
  5  7  1  0
  6 15  1  0
  6 16  1  0
  7  8  1  0
  7 17  1  0
  8  9  1  0
  8 10  2  0
  9 18  1  0
  9 19  1  0
  9 20  1  0
M  END

> <RosettaParamsInstructions>
M  ROOT 7
M  POLY_N_BB 7
M  POLY_CA_BB 5
M  POLY_C_BB 3
M  POLY_O_BB 4
M  POLY_IGNORE 1 10 9 14 11 12 13 18 19 20
M  POLY_UPPER 2
M  POLY_LOWER 8
M  POLY_CHG 0
M  POLY_PROPERTIES PROTEIN POLYMER ALPHA_AA ALIPHATIC
M  END

$$$$
DHA_new
     RDKit          3D

 20 19  0  0  0  0  0  0  0  0999 V2000
    2.7202   -1.0511    2.5045 C   0  0  0  0  0  0  0  0  0  0  0  0
    1.6959   -0.2267    1.8527 N   0  0  0  0  0  0  0  0  0  0  0  0
    0.5726   -0.8259    1.2671 C   0  0  0  0  0  0  0  0  0  0  0  0
    0.4691   -2.0879    1.3169 O   0  0  0  0  0  0  0  0  0  0  0  0
   -0.4927   -0.0783    0.5986 C   0  0  0  0  0  0  0  0  0  0  0  0
   -0.3959    1.2156    0.5423 C   0  0  0  0  0  0  0  0  0  0  0  0
   -1.5791   -0.7898    0.0436 N   0  0  0  0  0  0  0  0  0  0  0  0
   -2.6717   -0.2253   -0.6247 C   0  0  0  0  0  0  0  0  0  0  0  0
   -3.7464   -1.1506   -1.1546 C   0  0  0  0  0  0  0  0  0  0  0  0
   -2.8562    0.9784   -0.8328 O   0  0  0  0  0  0  0  0  0  0  0  0
    3.7344   -0.7560    2.1710 H   0  0  0  0  0  0  0  0  0  0  0  0
    2.5773   -2.1072    2.1744 H   0  0  0  0  0  0  0  0  0  0  0  0
    2.6404   -0.9843    3.5902 H   0  0  0  0  0  0  0  0  0  0  0  0
    1.8843    0.7895    1.8722 H   0  0  0  0  0  0  0  0  0  0  0  0
   -1.1141    1.8807    0.0778 H   0  0  0  0  0  0  0  0  0  0  0  0
    0.4689    1.7400    0.9877 H   0  0  0  0  0  0  0  0  0  0  0  0
   -1.5605   -1.8667    0.1467 H   0  0  0  0  0  0  0  0  0  0  0  0
   -4.4689   -1.2986   -0.3301 H   0  0  0  0  0  0  0  0  0  0  0  0
   -4.2331   -0.7059   -2.0539 H   0  0  0  0  0  0  0  0  0  0  0  0
   -3.2510   -2.1021   -1.4086 H   0  0  0  0  0  0  0  0  0  0  0  0
  1  2  1  0
  1 11  1  0
  1 12  1  0
  1 13  1  0
  2  3  1  0
  2 14  1  0
  3  4  2  0
  3  5  1  0
  5  6  2  3
  5  7  1  0
  6 15  1  0
  6 16  1  0
  7  8  1  0
  7 17  1  0
  8  9  1  0
  8 10  2  0
  9 18  1  0
  9 19  1  0
  9 20  1  0
M  END

> <RosettaParamsInstructions>
M  ROOT 7
M  POLY_N_BB 7
M  POLY_CA_BB 5
M  POLY_C_BB 3
M  POLY_O_BB 4
M  POLY_IGNORE 1 10 9 14 11 12 13 18 19 20
M  POLY_UPPER 2
M  POLY_LOWER 8
M  POLY_CHG 0
M  POLY_PROPERTIES PROTEIN POLYMER ALPHA_AA ALIPHATIC
M  END

$$$$
DHA_new
     RDKit          3D

 20 19  0  0  0  0  0  0  0  0999 V2000
    2.6299   -1.0782    2.5691 C   0  0  0  0  0  0  0  0  0  0  0  0
    1.6383   -0.1985    1.8990 N   0  0  0  0  0  0  0  0  0  0  0  0
    0.5442   -0.8188    1.2906 C   0  0  0  0  0  0  0  0  0  0  0  0
    0.4473   -2.0948    1.3373 O   0  0  0  0  0  0  0  0  0  0  0  0
   -0.4977   -0.0459    0.5989 C   0  0  0  0  0  0  0  0  0  0  0  0
   -0.3850    1.2552    0.5597 C   0  0  0  0  0  0  0  0  0  0  0  0
   -1.5639   -0.7680    0.0158 N   0  0  0  0  0  0  0  0  0  0  0  0
   -2.6381   -0.2433   -0.6750 C   0  0  0  0  0  0  0  0  0  0  0  0
   -3.6771   -1.1970   -1.2227 C   0  0  0  0  0  0  0  0  0  0  0  0
   -2.7892    0.9754   -0.8665 O   0  0  0  0  0  0  0  0  0  0  0  0
    2.3335   -1.2113    3.6126 H   0  0  0  0  0  0  0  0  0  0  0  0
    3.6236   -0.5993    2.4763 H   0  0  0  0  0  0  0  0  0  0  0  0
    2.6950   -2.0371    2.0039 H   0  0  0  0  0  0  0  0  0  0  0  0
    1.8287    0.8101    1.9308 H   0  0  0  0  0  0  0  0  0  0  0  0
   -1.0978    1.9245    0.0749 H   0  0  0  0  0  0  0  0  0  0  0  0
    0.4626    1.7321    1.0313 H   0  0  0  0  0  0  0  0  0  0  0  0
   -1.5306   -1.8308    0.1233 H   0  0  0  0  0  0  0  0  0  0  0  0
   -3.7432   -2.0193   -0.4943 H   0  0  0  0  0  0  0  0  0  0  0  0
   -3.2845   -1.5761   -2.1762 H   0  0  0  0  0  0  0  0  0  0  0  0
   -4.6026   -0.6310   -1.3480 H   0  0  0  0  0  0  0  0  0  0  0  0
  1  2  1  0
  1 11  1  0
  1 12  1  0
  1 13  1  0
  2  3  1  0
  2 14  1  0
  3  4  2  0
  3  5  1  0
  5  6  2  3
  5  7  1  0
  6 15  1  0
  6 16  1  0
  7  8  1  0
  7 17  1  0
  8  9  1  0
  8 10  2  0
  9 18  1  0
  9 19  1  0
  9 20  1  0
M  END

> <RosettaParamsInstructions>
M  ROOT 7
M  POLY_N_BB 7
M  POLY_CA_BB 5
M  POLY_C_BB 3
M  POLY_O_BB 4
M  POLY_IGNORE 1 10 9 14 11 12 13 18 19 20
M  POLY_UPPER 2
M  POLY_LOWER 8
M  POLY_CHG 0
M  POLY_PROPERTIES PROTEIN POLYMER ALPHA_AA ALIPHATIC
M  END

$$$$
DHA_new
     RDKit          3D

 20 19  0  0  0  0  0  0  0  0999 V2000
    2.6184   -1.0525    2.6587 C   0  0  0  0  0  0  0  0  0  0  0  0
    1.6781   -0.2432    1.8779 N   0  0  0  0  0  0  0  0  0  0  0  0
    0.5111   -0.8283    1.3346 C   0  0  0  0  0  0  0  0  0  0  0  0
    0.3029   -2.0673    1.5435 O   0  0  0  0  0  0  0  0  0  0  0  0
   -0.4473   -0.0696    0.5542 C   0  0  0  0  0  0  0  0  0  0  0  0
   -0.2481    1.1901    0.3334 C   0  0  0  0  0  0  0  0  0  0  0  0
   -1.5795   -0.7334    0.0513 N   0  0  0  0  0  0  0  0  0  0  0  0
   -2.6307   -0.2091   -0.7234 C   0  0  0  0  0  0  0  0  0  0  0  0
   -3.7294   -1.1542   -1.1304 C   0  0  0  0  0  0  0  0  0  0  0  0
   -2.7441    0.9668   -1.1089 O   0  0  0  0  0  0  0  0  0  0  0  0
    2.1120   -1.9915    3.0071 H   0  0  0  0  0  0  0  0  0  0  0  0
    3.4427   -1.3112    1.9793 H   0  0  0  0  0  0  0  0  0  0  0  0
    2.9679   -0.4404    3.5093 H   0  0  0  0  0  0  0  0  0  0  0  0
    1.9439    0.7531    1.7711 H   0  0  0  0  0  0  0  0  0  0  0  0
    0.6311    1.7006    0.7234 H   0  0  0  0  0  0  0  0  0  0  0  0
   -0.9166    1.8021   -0.2336 H   0  0  0  0  0  0  0  0  0  0  0  0
   -1.6305   -1.7787    0.3020 H   0  0  0  0  0  0  0  0  0  0  0  0
   -3.3845   -1.6876   -2.0404 H   0  0  0  0  0  0  0  0  0  0  0  0
   -3.8368   -1.8996   -0.3267 H   0  0  0  0  0  0  0  0  0  0  0  0
   -4.6673   -0.5982   -1.3414 H   0  0  0  0  0  0  0  0  0  0  0  0
  1  2  1  0
  1 11  1  0
  1 12  1  0
  1 13  1  0
  2  3  1  0
  2 14  1  0
  3  4  2  0
  3  5  1  0
  5  6  2  3
  5  7  1  0
  6 15  1  0
  6 16  1  0
  7  8  1  0
  7 17  1  0
  8  9  1  0
  8 10  2  0
  9 18  1  0
  9 19  1  0
  9 20  1  0
M  END

> <RosettaParamsInstructions>
M  ROOT 7
M  POLY_N_BB 7
M  POLY_CA_BB 5
M  POLY_C_BB 3
M  POLY_O_BB 4
M  POLY_IGNORE 1 10 9 14 11 12 13 18 19 20
M  POLY_UPPER 2
M  POLY_LOWER 8
M  POLY_CHG 0
M  POLY_PROPERTIES PROTEIN POLYMER ALPHA_AA ALIPHATIC
M  END

$$$$
DHA_new
     RDKit          3D

 20 19  0  0  0  0  0  0  0  0999 V2000
    2.6813   -1.0591    2.5668 C   0  0  0  0  0  0  0  0  0  0  0  0
    1.6869   -0.2324    1.8623 N   0  0  0  0  0  0  0  0  0  0  0  0
    0.5643   -0.8244    1.2961 C   0  0  0  0  0  0  0  0  0  0  0  0
    0.4280   -2.0929    1.4070 O   0  0  0  0  0  0  0  0  0  0  0  0
   -0.4579   -0.0479    0.5830 C   0  0  0  0  0  0  0  0  0  0  0  0
   -0.3248    1.2281    0.4691 C   0  0  0  0  0  0  0  0  0  0  0  0
   -1.5501   -0.7541    0.0516 N   0  0  0  0  0  0  0  0  0  0  0  0
   -2.6482   -0.2499   -0.6648 C   0  0  0  0  0  0  0  0  0  0  0  0
   -3.7372   -1.1638   -1.1631 C   0  0  0  0  0  0  0  0  0  0  0  0
   -2.7652    0.9588   -0.9145 O   0  0  0  0  0  0  0  0  0  0  0  0
    3.1129   -0.4899    3.4151 H   0  0  0  0  0  0  0  0  0  0  0  0
    2.1883   -1.9470    2.9782 H   0  0  0  0  0  0  0  0  0  0  0  0
    3.4933   -1.3710    1.8586 H   0  0  0  0  0  0  0  0  0  0  0  0
    1.8617    0.7807    1.8122 H   0  0  0  0  0  0  0  0  0  0  0  0
    0.5207    1.7541    0.8836 H   0  0  0  0  0  0  0  0  0  0  0  0
   -1.0352    1.8410   -0.0375 H   0  0  0  0  0  0  0  0  0  0  0  0
   -1.5680   -1.8197    0.2011 H   0  0  0  0  0  0  0  0  0  0  0  0
   -4.7187   -0.6468   -1.1314 H   0  0  0  0  0  0  0  0  0  0  0  0
   -3.5428   -1.4719   -2.2107 H   0  0  0  0  0  0  0  0  0  0  0  0
   -3.7956   -2.0442   -0.5217 H   0  0  0  0  0  0  0  0  0  0  0  0
  1  2  1  0
  1 11  1  0
  1 12  1  0
  1 13  1  0
  2  3  1  0
  2 14  1  0
  3  4  2  0
  3  5  1  0
  5  6  2  3
  5  7  1  0
  6 15  1  0
  6 16  1  0
  7  8  1  0
  7 17  1  0
  8  9  1  0
  8 10  2  0
  9 18  1  0
  9 19  1  0
  9 20  1  0
M  END

> <RosettaParamsInstructions>
M  ROOT 7
M  POLY_N_BB 7
M  POLY_CA_BB 5
M  POLY_C_BB 3
M  POLY_O_BB 4
M  POLY_IGNORE 1 10 9 14 11 12 13 18 19 20
M  POLY_UPPER 2
M  POLY_LOWER 8
M  POLY_CHG 0
M  POLY_PROPERTIES PROTEIN POLYMER ALPHA_AA ALIPHATIC
M  END

$$$$
DHA_new
     RDKit          3D

 20 19  0  0  0  0  0  0  0  0999 V2000
    2.6633   -1.0320    2.5897 C   0  0  0  0  0  0  0  0  0  0  0  0
    1.6793   -0.2196    1.8670 N   0  0  0  0  0  0  0  0  0  0  0  0
    0.5703   -0.8236    1.3205 C   0  0  0  0  0  0  0  0  0  0  0  0
    0.4054   -2.0754    1.4442 O   0  0  0  0  0  0  0  0  0  0  0  0
   -0.4581   -0.0750    0.5828 C   0  0  0  0  0  0  0  0  0  0  0  0
   -0.2936    1.2107    0.4529 C   0  0  0  0  0  0  0  0  0  0  0  0
   -1.5712   -0.7896    0.0535 N   0  0  0  0  0  0  0  0  0  0  0  0
   -2.6429   -0.2730   -0.6688 C   0  0  0  0  0  0  0  0  0  0  0  0
   -3.7573   -1.1603   -1.1684 C   0  0  0  0  0  0  0  0  0  0  0  0
   -2.7719    0.9381   -0.9584 O   0  0  0  0  0  0  0  0  0  0  0  0
    3.6564   -0.5830    2.5279 H   0  0  0  0  0  0  0  0  0  0  0  0
    2.3308   -1.1702    3.6326 H   0  0  0  0  0  0  0  0  0  0  0  0
    2.7032   -2.0075    2.0396 H   0  0  0  0  0  0  0  0  0  0  0  0
    1.8866    0.7813    1.8125 H   0  0  0  0  0  0  0  0  0  0  0  0
    0.5517    1.7112    0.8623 H   0  0  0  0  0  0  0  0  0  0  0  0
   -0.9993    1.8153   -0.0694 H   0  0  0  0  0  0  0  0  0  0  0  0
   -1.5694   -1.8464    0.2410 H   0  0  0  0  0  0  0  0  0  0  0  0
   -4.6767   -0.8003   -0.6595 H   0  0  0  0  0  0  0  0  0  0  0  0
   -3.5098   -2.1992   -0.8993 H   0  0  0  0  0  0  0  0  0  0  0  0
   -3.8032   -1.0539   -2.2618 H   0  0  0  0  0  0  0  0  0  0  0  0
  1  2  1  0
  1 11  1  0
  1 12  1  0
  1 13  1  0
  2  3  1  0
  2 14  1  0
  3  4  2  0
  3  5  1  0
  5  6  2  3
  5  7  1  0
  6 15  1  0
  6 16  1  0
  7  8  1  0
  7 17  1  0
  8  9  1  0
  8 10  2  0
  9 18  1  0
  9 19  1  0
  9 20  1  0
M  END

> <RosettaParamsInstructions>
M  ROOT 7
M  POLY_N_BB 7
M  POLY_CA_BB 5
M  POLY_C_BB 3
M  POLY_O_BB 4
M  POLY_IGNORE 1 10 9 14 11 12 13 18 19 20
M  POLY_UPPER 2
M  POLY_LOWER 8
M  POLY_CHG 0
M  POLY_PROPERTIES PROTEIN POLYMER ALPHA_AA ALIPHATIC
M  END

$$$$
DHA_new
     RDKit          3D

 20 19  0  0  0  0  0  0  0  0999 V2000
    2.7226   -1.0615    2.5300 C   0  0  0  0  0  0  0  0  0  0  0  0
    1.6932   -0.2636    1.8418 N   0  0  0  0  0  0  0  0  0  0  0  0
    0.5586   -0.8654    1.2760 C   0  0  0  0  0  0  0  0  0  0  0  0
    0.4423   -2.1077    1.3715 O   0  0  0  0  0  0  0  0  0  0  0  0
   -0.4547   -0.0823    0.5989 C   0  0  0  0  0  0  0  0  0  0  0  0
   -0.3359    1.2177    0.4973 C   0  0  0  0  0  0  0  0  0  0  0  0
   -1.5557   -0.7809    0.0648 N   0  0  0  0  0  0  0  0  0  0  0  0
   -2.6574   -0.2754   -0.6264 C   0  0  0  0  0  0  0  0  0  0  0  0
   -3.7633   -1.1575   -1.1395 C   0  0  0  0  0  0  0  0  0  0  0  0
   -2.7971    0.9341   -0.8629 O   0  0  0  0  0  0  0  0  0  0  0  0
    2.2812   -2.0791    2.6930 H   0  0  0  0  0  0  0  0  0  0  0  0
    2.9123   -0.5391    3.4882 H   0  0  0  0  0  0  0  0  0  0  0  0
    3.6432   -1.1075    1.9108 H   0  0  0  0  0  0  0  0  0  0  0  0
    1.8855    0.7508    1.8190 H   0  0  0  0  0  0  0  0  0  0  0  0
   -1.0372    1.8721    0.0141 H   0  0  0  0  0  0  0  0  0  0  0  0
    0.5249    1.7618    0.9152 H   0  0  0  0  0  0  0  0  0  0  0  0
   -1.5611   -1.8526    0.2011 H   0  0  0  0  0  0  0  0  0  0  0  0
   -4.7237   -0.8752   -0.6803 H   0  0  0  0  0  0  0  0  0  0  0  0
   -3.8449   -0.9222   -2.2290 H   0  0  0  0  0  0  0  0  0  0  0  0
   -3.5391   -2.2187   -0.9428 H   0  0  0  0  0  0  0  0  0  0  0  0
  1  2  1  0
  1 11  1  0
  1 12  1  0
  1 13  1  0
  2  3  1  0
  2 14  1  0
  3  4  2  0
  3  5  1  0
  5  6  2  3
  5  7  1  0
  6 15  1  0
  6 16  1  0
  7  8  1  0
  7 17  1  0
  8  9  1  0
  8 10  2  0
  9 18  1  0
  9 19  1  0
  9 20  1  0
M  END

> <RosettaParamsInstructions>
M  ROOT 7
M  POLY_N_BB 7
M  POLY_CA_BB 5
M  POLY_C_BB 3
M  POLY_O_BB 4
M  POLY_IGNORE 1 10 9 14 11 12 13 18 19 20
M  POLY_UPPER 2
M  POLY_LOWER 8
M  POLY_CHG 0
M  POLY_PROPERTIES PROTEIN POLYMER ALPHA_AA ALIPHATIC
M  END

$$$$
DHA_new
     RDKit          3D

 20 19  0  0  0  0  0  0  0  0999 V2000
    2.6744   -1.0512    2.5857 C   0  0  0  0  0  0  0  0  0  0  0  0
    1.6678   -0.2698    1.8618 N   0  0  0  0  0  0  0  0  0  0  0  0
    0.5370   -0.8250    1.2926 C   0  0  0  0  0  0  0  0  0  0  0  0
    0.3782   -2.0845    1.4138 O   0  0  0  0  0  0  0  0  0  0  0  0
   -0.4694   -0.0817    0.5753 C   0  0  0  0  0  0  0  0  0  0  0  0
   -0.3043    1.2226    0.4501 C   0  0  0  0  0  0  0  0  0  0  0  0
   -1.5888   -0.7687    0.0353 N   0  0  0  0  0  0  0  0  0  0  0  0
   -2.6472   -0.2522   -0.6740 C   0  0  0  0  0  0  0  0  0  0  0  0
   -3.7525   -1.1521   -1.1695 C   0  0  0  0  0  0  0  0  0  0  0  0
   -2.7782    0.9488   -0.9554 O   0  0  0  0  0  0  0  0  0  0  0  0
    2.9060   -0.5090    3.5082 H   0  0  0  0  0  0  0  0  0  0  0  0
    2.2883   -2.0529    2.8618 H   0  0  0  0  0  0  0  0  0  0  0  0
    3.5512   -1.1696    1.9186 H   0  0  0  0  0  0  0  0  0  0  0  0
    1.8765    0.7448    1.8115 H   0  0  0  0  0  0  0  0  0  0  0  0
    0.5577    1.7628    0.8641 H   0  0  0  0  0  0  0  0  0  0  0  0
   -0.9931    1.8807   -0.0663 H   0  0  0  0  0  0  0  0  0  0  0  0
   -1.5938   -1.8243    0.2121 H   0  0  0  0  0  0  0  0  0  0  0  0
   -3.8603   -1.9432   -0.3991 H   0  0  0  0  0  0  0  0  0  0  0  0
   -3.3646   -1.6203   -2.0889 H   0  0  0  0  0  0  0  0  0  0  0  0
   -4.6911   -0.6076   -1.2970 H   0  0  0  0  0  0  0  0  0  0  0  0
  1  2  1  0
  1 11  1  0
  1 12  1  0
  1 13  1  0
  2  3  1  0
  2 14  1  0
  3  4  2  0
  3  5  1  0
  5  6  2  3
  5  7  1  0
  6 15  1  0
  6 16  1  0
  7  8  1  0
  7 17  1  0
  8  9  1  0
  8 10  2  0
  9 18  1  0
  9 19  1  0
  9 20  1  0
M  END

> <RosettaParamsInstructions>
M  ROOT 7
M  POLY_N_BB 7
M  POLY_CA_BB 5
M  POLY_C_BB 3
M  POLY_O_BB 4
M  POLY_IGNORE 1 10 9 14 11 12 13 18 19 20
M  POLY_UPPER 2
M  POLY_LOWER 8
M  POLY_CHG 0
M  POLY_PROPERTIES PROTEIN POLYMER ALPHA_AA ALIPHATIC
M  END

$$$$
DHA_new
     RDKit          3D

 20 19  0  0  0  0  0  0  0  0999 V2000
    2.6978   -1.0719    2.6068 C   0  0  0  0  0  0  0  0  0  0  0  0
    1.7274   -0.2682    1.8683 N   0  0  0  0  0  0  0  0  0  0  0  0
    0.5642   -0.7951    1.3109 C   0  0  0  0  0  0  0  0  0  0  0  0
    0.3765   -2.0515    1.4786 O   0  0  0  0  0  0  0  0  0  0  0  0
   -0.4599   -0.0560    0.5555 C   0  0  0  0  0  0  0  0  0  0  0  0
   -0.2881    1.2244    0.3732 C   0  0  0  0  0  0  0  0  0  0  0  0
   -1.5927   -0.7186    0.0456 N   0  0  0  0  0  0  0  0  0  0  0  0
   -2.6684   -0.2428   -0.6818 C   0  0  0  0  0  0  0  0  0  0  0  0
   -3.7776   -1.1563   -1.1228 C   0  0  0  0  0  0  0  0  0  0  0  0
   -2.7876    0.9575   -1.0147 O   0  0  0  0  0  0  0  0  0  0  0  0
    3.6707   -0.9267    2.0956 H   0  0  0  0  0  0  0  0  0  0  0  0
    2.3711   -2.1318    2.6139 H   0  0  0  0  0  0  0  0  0  0  0  0
    2.8135   -0.7207    3.6458 H   0  0  0  0  0  0  0  0  0  0  0  0
    1.9641    0.7308    1.7856 H   0  0  0  0  0  0  0  0  0  0  0  0
   -0.9970    1.8352   -0.1715 H   0  0  0  0  0  0  0  0  0  0  0  0
    0.6117    1.6920    0.7913 H   0  0  0  0  0  0  0  0  0  0  0  0
   -1.6151   -1.7780    0.2656 H   0  0  0  0  0  0  0  0  0  0  0  0
   -3.8599   -1.1354   -2.2087 H   0  0  0  0  0  0  0  0  0  0  0  0
   -4.7535   -0.8411   -0.7013 H   0  0  0  0  0  0  0  0  0  0  0  0
   -3.6038   -2.1982   -0.7949 H   0  0  0  0  0  0  0  0  0  0  0  0
  1  2  1  0
  1 11  1  0
  1 12  1  0
  1 13  1  0
  2  3  1  0
  2 14  1  0
  3  4  2  0
  3  5  1  0
  5  6  2  3
  5  7  1  0
  6 15  1  0
  6 16  1  0
  7  8  1  0
  7 17  1  0
  8  9  1  0
  8 10  2  0
  9 18  1  0
  9 19  1  0
  9 20  1  0
M  END

> <RosettaParamsInstructions>
M  ROOT 7
M  POLY_N_BB 7
M  POLY_CA_BB 5
M  POLY_C_BB 3
M  POLY_O_BB 4
M  POLY_IGNORE 1 10 9 14 11 12 13 18 19 20
M  POLY_UPPER 2
M  POLY_LOWER 8
M  POLY_CHG 0
M  POLY_PROPERTIES PROTEIN POLYMER ALPHA_AA ALIPHATIC
M  END

$$$$
DHA_new
     RDKit          3D

 20 19  0  0  0  0  0  0  0  0999 V2000
    2.6969   -1.0293    2.5885 C   0  0  0  0  0  0  0  0  0  0  0  0
    1.6690   -0.2659    1.8608 N   0  0  0  0  0  0  0  0  0  0  0  0
    0.5574   -0.8804    1.3036 C   0  0  0  0  0  0  0  0  0  0  0  0
    0.3762   -2.1450    1.3985 O   0  0  0  0  0  0  0  0  0  0  0  0
   -0.4719   -0.1088    0.5739 C   0  0  0  0  0  0  0  0  0  0  0  0
   -0.3414    1.1898    0.4437 C   0  0  0  0  0  0  0  0  0  0  0  0
   -1.5822   -0.7957    0.0291 N   0  0  0  0  0  0  0  0  0  0  0  0
   -2.6208   -0.2014   -0.6779 C   0  0  0  0  0  0  0  0  0  0  0  0
   -3.7199   -1.1297   -1.1778 C   0  0  0  0  0  0  0  0  0  0  0  0
   -2.7870    0.9900   -0.9659 O   0  0  0  0  0  0  0  0  0  0  0  0
    2.8730   -0.4890    3.5300 H   0  0  0  0  0  0  0  0  0  0  0  0
    2.3464   -2.0380    2.8342 H   0  0  0  0  0  0  0  0  0  0  0  0
    3.5852   -1.0694    1.9564 H   0  0  0  0  0  0  0  0  0  0  0  0
    1.8478    0.7344    1.8066 H   0  0  0  0  0  0  0  0  0  0  0  0
    0.5351    1.6906    0.8804 H   0  0  0  0  0  0  0  0  0  0  0  0
   -1.0410    1.8164   -0.0686 H   0  0  0  0  0  0  0  0  0  0  0  0
   -1.5773   -1.8554    0.2010 H   0  0  0  0  0  0  0  0  0  0  0  0
   -3.5675   -1.3971   -2.2232 H   0  0  0  0  0  0  0  0  0  0  0  0
   -4.6772   -0.6038   -0.9693 H   0  0  0  0  0  0  0  0  0  0  0  0
   -3.7075   -2.0644   -0.5829 H   0  0  0  0  0  0  0  0  0  0  0  0
  1  2  1  0
  1 11  1  0
  1 12  1  0
  1 13  1  0
  2  3  1  0
  2 14  1  0
  3  4  2  0
  3  5  1  0
  5  6  2  3
  5  7  1  0
  6 15  1  0
  6 16  1  0
  7  8  1  0
  7 17  1  0
  8  9  1  0
  8 10  2  0
  9 18  1  0
  9 19  1  0
  9 20  1  0
M  END

> <RosettaParamsInstructions>
M  ROOT 7
M  POLY_N_BB 7
M  POLY_CA_BB 5
M  POLY_C_BB 3
M  POLY_O_BB 4
M  POLY_IGNORE 1 10 9 14 11 12 13 18 19 20
M  POLY_UPPER 2
M  POLY_LOWER 8
M  POLY_CHG 0
M  POLY_PROPERTIES PROTEIN POLYMER ALPHA_AA ALIPHATIC
M  END

$$$$
DHA_new
     RDKit          3D

 20 19  0  0  0  0  0  0  0  0999 V2000
    2.6861   -1.0784    2.4847 C   0  0  0  0  0  0  0  0  0  0  0  0
    1.6695   -0.2444    1.8405 N   0  0  0  0  0  0  0  0  0  0  0  0
    0.5496   -0.8322    1.2507 C   0  0  0  0  0  0  0  0  0  0  0  0
    0.4561   -2.0932    1.2977 O   0  0  0  0  0  0  0  0  0  0  0  0
   -0.4809   -0.0325    0.6014 C   0  0  0  0  0  0  0  0  0  0  0  0
   -0.3557    1.2602    0.5698 C   0  0  0  0  0  0  0  0  0  0  0  0
   -1.5681   -0.7475    0.0402 N   0  0  0  0  0  0  0  0  0  0  0  0
   -2.6603   -0.2055   -0.6236 C   0  0  0  0  0  0  0  0  0  0  0  0
   -3.7130   -1.1671   -1.1458 C   0  0  0  0  0  0  0  0  0  0  0  0
   -2.8995    1.0088   -0.8561 O   0  0  0  0  0  0  0  0  0  0  0  0
    2.4701   -1.1588    3.5867 H   0  0  0  0  0  0  0  0  0  0  0  0
    2.6796   -2.1112    2.0839 H   0  0  0  0  0  0  0  0  0  0  0  0
    3.6858   -0.6276    2.3121 H   0  0  0  0  0  0  0  0  0  0  0  0
    1.8342    0.7638    1.8541 H   0  0  0  0  0  0  0  0  0  0  0  0
   -1.0997    1.8681    0.0986 H   0  0  0  0  0  0  0  0  0  0  0  0
    0.4757    1.7869    1.0006 H   0  0  0  0  0  0  0  0  0  0  0  0
   -1.5374   -1.8056    0.1418 H   0  0  0  0  0  0  0  0  0  0  0  0
   -3.7689   -1.9753   -0.4037 H   0  0  0  0  0  0  0  0  0  0  0  0
   -4.6731   -0.6397   -1.2913 H   0  0  0  0  0  0  0  0  0  0  0  0
   -3.3568   -1.6210   -2.1014 H   0  0  0  0  0  0  0  0  0  0  0  0
  1  2  1  0
  1 11  1  0
  1 12  1  0
  1 13  1  0
  2  3  1  0
  2 14  1  0
  3  4  2  0
  3  5  1  0
  5  6  2  3
  5  7  1  0
  6 15  1  0
  6 16  1  0
  7  8  1  0
  7 17  1  0
  8  9  1  0
  8 10  2  0
  9 18  1  0
  9 19  1  0
  9 20  1  0
M  END

> <RosettaParamsInstructions>
M  ROOT 7
M  POLY_N_BB 7
M  POLY_CA_BB 5
M  POLY_C_BB 3
M  POLY_O_BB 4
M  POLY_IGNORE 1 10 9 14 11 12 13 18 19 20
M  POLY_UPPER 2
M  POLY_LOWER 8
M  POLY_CHG 0
M  POLY_PROPERTIES PROTEIN POLYMER ALPHA_AA ALIPHATIC
M  END

$$$$
DHA_new
     RDKit          3D

 20 19  0  0  0  0  0  0  0  0999 V2000
    2.6667   -1.0798    2.5851 C   0  0  0  0  0  0  0  0  0  0  0  0
    1.7002   -0.2377    1.8755 N   0  0  0  0  0  0  0  0  0  0  0  0
    0.5561   -0.8094    1.3048 C   0  0  0  0  0  0  0  0  0  0  0  0
    0.3829   -2.0444    1.4158 O   0  0  0  0  0  0  0  0  0  0  0  0
   -0.4611   -0.0339    0.5769 C   0  0  0  0  0  0  0  0  0  0  0  0
   -0.3262    1.2583    0.4337 C   0  0  0  0  0  0  0  0  0  0  0  0
   -1.5716   -0.7467    0.0502 N   0  0  0  0  0  0  0  0  0  0  0  0
   -2.6443   -0.2487   -0.6624 C   0  0  0  0  0  0  0  0  0  0  0  0
   -3.7245   -1.1706   -1.1355 C   0  0  0  0  0  0  0  0  0  0  0  0
   -2.7866    0.9472   -0.9511 O   0  0  0  0  0  0  0  0  0  0  0  0
    3.5343   -1.2797    1.9200 H   0  0  0  0  0  0  0  0  0  0  0  0
    2.9924   -0.5354    3.4792 H   0  0  0  0  0  0  0  0  0  0  0  0
    2.1714   -2.0351    2.8276 H   0  0  0  0  0  0  0  0  0  0  0  0
    1.9447    0.7789    1.8436 H   0  0  0  0  0  0  0  0  0  0  0  0
   -1.0211    1.8881   -0.0807 H   0  0  0  0  0  0  0  0  0  0  0  0
    0.5514    1.7394    0.8641 H   0  0  0  0  0  0  0  0  0  0  0  0
   -1.5842   -1.8156    0.2265 H   0  0  0  0  0  0  0  0  0  0  0  0
   -4.6886   -0.6503   -1.2516 H   0  0  0  0  0  0  0  0  0  0  0  0
   -3.8723   -2.0136   -0.4428 H   0  0  0  0  0  0  0  0  0  0  0  0
   -3.4261   -1.5630   -2.1381 H   0  0  0  0  0  0  0  0  0  0  0  0
  1  2  1  0
  1 11  1  0
  1 12  1  0
  1 13  1  0
  2  3  1  0
  2 14  1  0
  3  4  2  0
  3  5  1  0
  5  6  2  3
  5  7  1  0
  6 15  1  0
  6 16  1  0
  7  8  1  0
  7 17  1  0
  8  9  1  0
  8 10  2  0
  9 18  1  0
  9 19  1  0
  9 20  1  0
M  END

> <RosettaParamsInstructions>
M  ROOT 7
M  POLY_N_BB 7
M  POLY_CA_BB 5
M  POLY_C_BB 3
M  POLY_O_BB 4
M  POLY_IGNORE 1 10 9 14 11 12 13 18 19 20
M  POLY_UPPER 2
M  POLY_LOWER 8
M  POLY_CHG 0
M  POLY_PROPERTIES PROTEIN POLYMER ALPHA_AA ALIPHATIC
M  END

$$$$
DHA_new
     RDKit          3D

 20 19  0  0  0  0  0  0  0  0999 V2000
    2.6760   -1.0641    2.5577 C   0  0  0  0  0  0  0  0  0  0  0  0
    1.7085   -0.2221    1.8579 N   0  0  0  0  0  0  0  0  0  0  0  0
    0.5818   -0.8268    1.3069 C   0  0  0  0  0  0  0  0  0  0  0  0
    0.4157   -2.0842    1.4203 O   0  0  0  0  0  0  0  0  0  0  0  0
   -0.4719   -0.0839    0.5738 C   0  0  0  0  0  0  0  0  0  0  0  0
   -0.3651    1.2121    0.4197 C   0  0  0  0  0  0  0  0  0  0  0  0
   -1.5768   -0.7706    0.0491 N   0  0  0  0  0  0  0  0  0  0  0  0
   -2.6274   -0.2222   -0.6499 C   0  0  0  0  0  0  0  0  0  0  0  0
   -3.7395   -1.1443   -1.1394 C   0  0  0  0  0  0  0  0  0  0  0  0
   -2.8108    0.9688   -0.9543 O   0  0  0  0  0  0  0  0  0  0  0  0
    2.1101   -1.8857    3.0345 H   0  0  0  0  0  0  0  0  0  0  0  0
    3.1617   -0.4964    3.3894 H   0  0  0  0  0  0  0  0  0  0  0  0
    3.4649   -1.4374    1.9062 H   0  0  0  0  0  0  0  0  0  0  0  0
    1.8891    0.7791    1.7956 H   0  0  0  0  0  0  0  0  0  0  0  0
   -1.0769    1.8268   -0.0943 H   0  0  0  0  0  0  0  0  0  0  0  0
    0.5214    1.6992    0.8513 H   0  0  0  0  0  0  0  0  0  0  0  0
   -1.5724   -1.8283    0.2278 H   0  0  0  0  0  0  0  0  0  0  0  0
   -3.2706   -2.1317   -1.2871 H   0  0  0  0  0  0  0  0  0  0  0  0
   -4.5505   -1.1489   -0.3897 H   0  0  0  0  0  0  0  0  0  0  0  0
   -4.0739   -0.7916   -2.1344 H   0  0  0  0  0  0  0  0  0  0  0  0
  1  2  1  0
  1 11  1  0
  1 12  1  0
  1 13  1  0
  2  3  1  0
  2 14  1  0
  3  4  2  0
  3  5  1  0
  5  6  2  3
  5  7  1  0
  6 15  1  0
  6 16  1  0
  7  8  1  0
  7 17  1  0
  8  9  1  0
  8 10  2  0
  9 18  1  0
  9 19  1  0
  9 20  1  0
M  END

> <RosettaParamsInstructions>
M  ROOT 7
M  POLY_N_BB 7
M  POLY_CA_BB 5
M  POLY_C_BB 3
M  POLY_O_BB 4
M  POLY_IGNORE 1 10 9 14 11 12 13 18 19 20
M  POLY_UPPER 2
M  POLY_LOWER 8
M  POLY_CHG 0
M  POLY_PROPERTIES PROTEIN POLYMER ALPHA_AA ALIPHATIC
M  END

$$$$
DHA_new
     RDKit          3D

 20 19  0  0  0  0  0  0  0  0999 V2000
    2.6578   -1.0719    2.5848 C   0  0  0  0  0  0  0  0  0  0  0  0
    1.6800   -0.2280    1.8528 N   0  0  0  0  0  0  0  0  0  0  0  0
    0.5378   -0.8159    1.3032 C   0  0  0  0  0  0  0  0  0  0  0  0
    0.3562   -2.0540    1.4380 O   0  0  0  0  0  0  0  0  0  0  0  0
   -0.4543   -0.0531    0.5787 C   0  0  0  0  0  0  0  0  0  0  0  0
   -0.2874    1.2379    0.4251 C   0  0  0  0  0  0  0  0  0  0  0  0
   -1.5825   -0.7688    0.0620 N   0  0  0  0  0  0  0  0  0  0  0  0
   -2.6565   -0.2485   -0.6630 C   0  0  0  0  0  0  0  0  0  0  0  0
   -3.7513   -1.1376   -1.1267 C   0  0  0  0  0  0  0  0  0  0  0  0
   -2.7550    0.9541   -0.9537 O   0  0  0  0  0  0  0  0  0  0  0  0
    2.1749   -2.0274    2.8405 H   0  0  0  0  0  0  0  0  0  0  0  0
    3.0072   -0.5415    3.4729 H   0  0  0  0  0  0  0  0  0  0  0  0
    3.5012   -1.2526    1.8967 H   0  0  0  0  0  0  0  0  0  0  0  0
    1.9319    0.7735    1.8049 H   0  0  0  0  0  0  0  0  0  0  0  0
   -0.9591    1.9072   -0.0950 H   0  0  0  0  0  0  0  0  0  0  0  0
    0.5848    1.7402    0.8345 H   0  0  0  0  0  0  0  0  0  0  0  0
   -1.6296   -1.8305    0.2407 H   0  0  0  0  0  0  0  0  0  0  0  0
   -3.2671   -2.1126   -1.4137 H   0  0  0  0  0  0  0  0  0  0  0  0
   -4.2523   -0.7481   -2.0344 H   0  0  0  0  0  0  0  0  0  0  0  0
   -4.4431   -1.3748   -0.3074 H   0  0  0  0  0  0  0  0  0  0  0  0
  1  2  1  0
  1 11  1  0
  1 12  1  0
  1 13  1  0
  2  3  1  0
  2 14  1  0
  3  4  2  0
  3  5  1  0
  5  6  2  3
  5  7  1  0
  6 15  1  0
  6 16  1  0
  7  8  1  0
  7 17  1  0
  8  9  1  0
  8 10  2  0
  9 18  1  0
  9 19  1  0
  9 20  1  0
M  END

> <RosettaParamsInstructions>
M  ROOT 7
M  POLY_N_BB 7
M  POLY_CA_BB 5
M  POLY_C_BB 3
M  POLY_O_BB 4
M  POLY_IGNORE 1 10 9 14 11 12 13 18 19 20
M  POLY_UPPER 2
M  POLY_LOWER 8
M  POLY_CHG 0
M  POLY_PROPERTIES PROTEIN POLYMER ALPHA_AA ALIPHATIC
M  END

$$$$
DHA_new
     RDKit          3D

 20 19  0  0  0  0  0  0  0  0999 V2000
    2.6522   -1.0744    2.5735 C   0  0  0  0  0  0  0  0  0  0  0  0
    1.6880   -0.1980    1.8628 N   0  0  0  0  0  0  0  0  0  0  0  0
    0.5597   -0.7971    1.2984 C   0  0  0  0  0  0  0  0  0  0  0  0
    0.4170   -2.0600    1.4223 O   0  0  0  0  0  0  0  0  0  0  0  0
   -0.4497   -0.0425    0.5812 C   0  0  0  0  0  0  0  0  0  0  0  0
   -0.3214    1.2482    0.4443 C   0  0  0  0  0  0  0  0  0  0  0  0
   -1.5442   -0.7762    0.0587 N   0  0  0  0  0  0  0  0  0  0  0  0
   -2.6373   -0.2760   -0.6658 C   0  0  0  0  0  0  0  0  0  0  0  0
   -3.7343   -1.1857   -1.1607 C   0  0  0  0  0  0  0  0  0  0  0  0
   -2.7517    0.9310   -0.9315 O   0  0  0  0  0  0  0  0  0  0  0  0
    2.9061   -0.6299    3.5576 H   0  0  0  0  0  0  0  0  0  0  0  0
    2.2042   -2.0568    2.7640 H   0  0  0  0  0  0  0  0  0  0  0  0
    3.5414   -1.2120    1.9199 H   0  0  0  0  0  0  0  0  0  0  0  0
    1.8937    0.8196    1.8163 H   0  0  0  0  0  0  0  0  0  0  0  0
   -1.0220    1.9064   -0.0756 H   0  0  0  0  0  0  0  0  0  0  0  0
    0.5525    1.7624    0.8732 H   0  0  0  0  0  0  0  0  0  0  0  0
   -1.5768   -1.8397    0.2145 H   0  0  0  0  0  0  0  0  0  0  0  0
   -3.8063   -2.0683   -0.4925 H   0  0  0  0  0  0  0  0  0  0  0  0
   -3.4753   -1.4503   -2.2031 H   0  0  0  0  0  0  0  0  0  0  0  0
   -4.7025   -0.6530   -1.1166 H   0  0  0  0  0  0  0  0  0  0  0  0
  1  2  1  0
  1 11  1  0
  1 12  1  0
  1 13  1  0
  2  3  1  0
  2 14  1  0
  3  4  2  0
  3  5  1  0
  5  6  2  3
  5  7  1  0
  6 15  1  0
  6 16  1  0
  7  8  1  0
  7 17  1  0
  8  9  1  0
  8 10  2  0
  9 18  1  0
  9 19  1  0
  9 20  1  0
M  END

> <RosettaParamsInstructions>
M  ROOT 7
M  POLY_N_BB 7
M  POLY_CA_BB 5
M  POLY_C_BB 3
M  POLY_O_BB 4
M  POLY_IGNORE 1 10 9 14 11 12 13 18 19 20
M  POLY_UPPER 2
M  POLY_LOWER 8
M  POLY_CHG 0
M  POLY_PROPERTIES PROTEIN POLYMER ALPHA_AA ALIPHATIC
M  END

$$$$
DHA_new
     RDKit          3D

 20 19  0  0  0  0  0  0  0  0999 V2000
    2.6652   -1.0817    2.5726 C   0  0  0  0  0  0  0  0  0  0  0  0
    1.6948   -0.2211    1.8620 N   0  0  0  0  0  0  0  0  0  0  0  0
    0.5586   -0.8259    1.3043 C   0  0  0  0  0  0  0  0  0  0  0  0
    0.3873   -2.0675    1.4159 O   0  0  0  0  0  0  0  0  0  0  0  0
   -0.4704   -0.0584    0.5756 C   0  0  0  0  0  0  0  0  0  0  0  0
   -0.3298    1.2310    0.4380 C   0  0  0  0  0  0  0  0  0  0  0  0
   -1.5754   -0.7707    0.0542 N   0  0  0  0  0  0  0  0  0  0  0  0
   -2.6483   -0.2271   -0.6620 C   0  0  0  0  0  0  0  0  0  0  0  0
   -3.7379   -1.1656   -1.1358 C   0  0  0  0  0  0  0  0  0  0  0  0
   -2.7699    0.9712   -0.9364 O   0  0  0  0  0  0  0  0  0  0  0  0
    3.6750   -0.6385    2.4624 H   0  0  0  0  0  0  0  0  0  0  0  0
    2.6158   -2.0743    2.1120 H   0  0  0  0  0  0  0  0  0  0  0  0
    2.4206   -1.1033    3.6503 H   0  0  0  0  0  0  0  0  0  0  0  0
    1.8848    0.7826    1.8017 H   0  0  0  0  0  0  0  0  0  0  0  0
    0.5364    1.7582    0.8520 H   0  0  0  0  0  0  0  0  0  0  0  0
   -1.0297    1.8403   -0.0725 H   0  0  0  0  0  0  0  0  0  0  0  0
   -1.5929   -1.8414    0.2261 H   0  0  0  0  0  0  0  0  0  0  0  0
   -3.3725   -1.6259   -2.0732 H   0  0  0  0  0  0  0  0  0  0  0  0
   -4.6580   -0.6187   -1.3512 H   0  0  0  0  0  0  0  0  0  0  0  0
   -3.8601   -1.9153   -0.3552 H   0  0  0  0  0  0  0  0  0  0  0  0
  1  2  1  0
  1 11  1  0
  1 12  1  0
  1 13  1  0
  2  3  1  0
  2 14  1  0
  3  4  2  0
  3  5  1  0
  5  6  2  3
  5  7  1  0
  6 15  1  0
  6 16  1  0
  7  8  1  0
  7 17  1  0
  8  9  1  0
  8 10  2  0
  9 18  1  0
  9 19  1  0
  9 20  1  0
M  END

> <RosettaParamsInstructions>
M  ROOT 7
M  POLY_N_BB 7
M  POLY_CA_BB 5
M  POLY_C_BB 3
M  POLY_O_BB 4
M  POLY_IGNORE 1 10 9 14 11 12 13 18 19 20
M  POLY_UPPER 2
M  POLY_LOWER 8
M  POLY_CHG 0
M  POLY_PROPERTIES PROTEIN POLYMER ALPHA_AA ALIPHATIC
M  END

$$$$
DHA_new
     RDKit          3D

 20 19  0  0  0  0  0  0  0  0999 V2000
    2.6822   -1.0617    2.5708 C   0  0  0  0  0  0  0  0  0  0  0  0
    1.6828   -0.2347    1.8545 N   0  0  0  0  0  0  0  0  0  0  0  0
    0.5594   -0.8557    1.2995 C   0  0  0  0  0  0  0  0  0  0  0  0
    0.3723   -2.1132    1.3931 O   0  0  0  0  0  0  0  0  0  0  0  0
   -0.4599   -0.0795    0.5798 C   0  0  0  0  0  0  0  0  0  0  0  0
   -0.3083    1.2049    0.4611 C   0  0  0  0  0  0  0  0  0  0  0  0
   -1.5645   -0.7766    0.0480 N   0  0  0  0  0  0  0  0  0  0  0  0
   -2.6346   -0.2431   -0.6622 C   0  0  0  0  0  0  0  0  0  0  0  0
   -3.7367   -1.1537   -1.1581 C   0  0  0  0  0  0  0  0  0  0  0  0
   -2.7484    0.9566   -0.9219 O   0  0  0  0  0  0  0  0  0  0  0  0
    2.6111   -2.0780    2.1655 H   0  0  0  0  0  0  0  0  0  0  0  0
    3.6860   -0.6170    2.4239 H   0  0  0  0  0  0  0  0  0  0  0  0
    2.4102   -1.0360    3.6648 H   0  0  0  0  0  0  0  0  0  0  0  0
    1.8367    0.7775    1.7810 H   0  0  0  0  0  0  0  0  0  0  0  0
   -1.0268    1.8081   -0.0552 H   0  0  0  0  0  0  0  0  0  0  0  0
    0.5355    1.7679    0.8625 H   0  0  0  0  0  0  0  0  0  0  0  0
   -1.6089   -1.8427    0.1940 H   0  0  0  0  0  0  0  0  0  0  0  0
   -3.3210   -2.1964   -1.1948 H   0  0  0  0  0  0  0  0  0  0  0  0
   -4.0281   -0.7863   -2.1481 H   0  0  0  0  0  0  0  0  0  0  0  0
   -4.5455   -1.0927   -0.4174 H   0  0  0  0  0  0  0  0  0  0  0  0
  1  2  1  0
  1 11  1  0
  1 12  1  0
  1 13  1  0
  2  3  1  0
  2 14  1  0
  3  4  2  0
  3  5  1  0
  5  6  2  3
  5  7  1  0
  6 15  1  0
  6 16  1  0
  7  8  1  0
  7 17  1  0
  8  9  1  0
  8 10  2  0
  9 18  1  0
  9 19  1  0
  9 20  1  0
M  END

> <RosettaParamsInstructions>
M  ROOT 7
M  POLY_N_BB 7
M  POLY_CA_BB 5
M  POLY_C_BB 3
M  POLY_O_BB 4
M  POLY_IGNORE 1 10 9 14 11 12 13 18 19 20
M  POLY_UPPER 2
M  POLY_LOWER 8
M  POLY_CHG 0
M  POLY_PROPERTIES PROTEIN POLYMER ALPHA_AA ALIPHATIC
M  END

$$$$
DHA_new
     RDKit          3D

 20 19  0  0  0  0  0  0  0  0999 V2000
    2.6720   -1.0600    2.6000 C   0  0  0  0  0  0  0  0  0  0  0  0
    1.6958   -0.2349    1.8809 N   0  0  0  0  0  0  0  0  0  0  0  0
    0.5751   -0.8411    1.3223 C   0  0  0  0  0  0  0  0  0  0  0  0
    0.4197   -2.0888    1.4448 O   0  0  0  0  0  0  0  0  0  0  0  0
   -0.4664   -0.0991    0.5789 C   0  0  0  0  0  0  0  0  0  0  0  0
   -0.3054    1.2016    0.4507 C   0  0  0  0  0  0  0  0  0  0  0  0
   -1.5662   -0.7913    0.0476 N   0  0  0  0  0  0  0  0  0  0  0  0
   -2.6365   -0.2490   -0.6785 C   0  0  0  0  0  0  0  0  0  0  0  0
   -3.7461   -1.1380   -1.1818 C   0  0  0  0  0  0  0  0  0  0  0  0
   -2.7733    0.9541   -0.9661 O   0  0  0  0  0  0  0  0  0  0  0  0
    2.3427   -1.1554    3.6363 H   0  0  0  0  0  0  0  0  0  0  0  0
    2.7575   -2.0245    2.0543 H   0  0  0  0  0  0  0  0  0  0  0  0
    3.6455   -0.5665    2.5671 H   0  0  0  0  0  0  0  0  0  0  0  0
    1.8823    0.7869    1.8157 H   0  0  0  0  0  0  0  0  0  0  0  0
    0.5463    1.7556    0.8592 H   0  0  0  0  0  0  0  0  0  0  0  0
   -1.0024    1.8345   -0.0702 H   0  0  0  0  0  0  0  0  0  0  0  0
   -1.5611   -1.8449    0.2315 H   0  0  0  0  0  0  0  0  0  0  0  0
   -4.6926   -0.7772   -0.7640 H   0  0  0  0  0  0  0  0  0  0  0  0
   -3.5822   -2.1655   -0.8209 H   0  0  0  0  0  0  0  0  0  0  0  0
   -3.8112   -1.1487   -2.2669 H   0  0  0  0  0  0  0  0  0  0  0  0
  1  2  1  0
  1 11  1  0
  1 12  1  0
  1 13  1  0
  2  3  1  0
  2 14  1  0
  3  4  2  0
  3  5  1  0
  5  6  2  3
  5  7  1  0
  6 15  1  0
  6 16  1  0
  7  8  1  0
  7 17  1  0
  8  9  1  0
  8 10  2  0
  9 18  1  0
  9 19  1  0
  9 20  1  0
M  END

> <RosettaParamsInstructions>
M  ROOT 7
M  POLY_N_BB 7
M  POLY_CA_BB 5
M  POLY_C_BB 3
M  POLY_O_BB 4
M  POLY_IGNORE 1 10 9 14 11 12 13 18 19 20
M  POLY_UPPER 2
M  POLY_LOWER 8
M  POLY_CHG 0
M  POLY_PROPERTIES PROTEIN POLYMER ALPHA_AA ALIPHATIC
M  END

$$$$
DHA_new
     RDKit          3D

 20 19  0  0  0  0  0  0  0  0999 V2000
    2.6830   -1.0251    2.5723 C   0  0  0  0  0  0  0  0  0  0  0  0
    1.6582   -0.2150    1.8885 N   0  0  0  0  0  0  0  0  0  0  0  0
    0.5713   -0.8445    1.2946 C   0  0  0  0  0  0  0  0  0  0  0  0
    0.4472   -2.1263    1.3337 O   0  0  0  0  0  0  0  0  0  0  0  0
   -0.4826   -0.0680    0.5963 C   0  0  0  0  0  0  0  0  0  0  0  0
   -0.3756    1.2260    0.5459 C   0  0  0  0  0  0  0  0  0  0  0  0
   -1.5571   -0.7684    0.0161 N   0  0  0  0  0  0  0  0  0  0  0  0
   -2.6233   -0.2339   -0.6681 C   0  0  0  0  0  0  0  0  0  0  0  0
   -3.6792   -1.1470   -1.2184 C   0  0  0  0  0  0  0  0  0  0  0  0
   -2.7904    0.9797   -0.8751 O   0  0  0  0  0  0  0  0  0  0  0  0
    2.3071   -1.3697    3.5553 H   0  0  0  0  0  0  0  0  0  0  0  0
    3.6076   -0.4686    2.7339 H   0  0  0  0  0  0  0  0  0  0  0  0
    2.8682   -1.9397    1.9625 H   0  0  0  0  0  0  0  0  0  0  0  0
    1.8128    0.7858    1.8924 H   0  0  0  0  0  0  0  0  0  0  0  0
    0.4812    1.7302    1.0133 H   0  0  0  0  0  0  0  0  0  0  0  0
   -1.1030    1.8514    0.0560 H   0  0  0  0  0  0  0  0  0  0  0  0
   -1.5383   -1.8391    0.1220 H   0  0  0  0  0  0  0  0  0  0  0  0
   -3.5481   -2.1815   -0.8421 H   0  0  0  0  0  0  0  0  0  0  0  0
   -3.6511   -1.1835   -2.3147 H   0  0  0  0  0  0  0  0  0  0  0  0
   -4.6944   -0.8151   -0.9236 H   0  0  0  0  0  0  0  0  0  0  0  0
  1  2  1  0
  1 11  1  0
  1 12  1  0
  1 13  1  0
  2  3  1  0
  2 14  1  0
  3  4  2  0
  3  5  1  0
  5  6  2  3
  5  7  1  0
  6 15  1  0
  6 16  1  0
  7  8  1  0
  7 17  1  0
  8  9  1  0
  8 10  2  0
  9 18  1  0
  9 19  1  0
  9 20  1  0
M  END

> <RosettaParamsInstructions>
M  ROOT 7
M  POLY_N_BB 7
M  POLY_CA_BB 5
M  POLY_C_BB 3
M  POLY_O_BB 4
M  POLY_IGNORE 1 10 9 14 11 12 13 18 19 20
M  POLY_UPPER 2
M  POLY_LOWER 8
M  POLY_CHG 0
M  POLY_PROPERTIES PROTEIN POLYMER ALPHA_AA ALIPHATIC
M  END

$$$$
DHA_new
     RDKit          3D

 20 19  0  0  0  0  0  0  0  0999 V2000
    2.3156   -1.5851    2.3845 C   0  0  0  0  0  0  0  0  0  0  0  0
    1.1033   -1.2154    1.6338 N   0  0  0  0  0  0  0  0  0  0  0  0
    0.8267    0.1157    1.3619 C   0  0  0  0  0  0  0  0  0  0  0  0
    1.6357    1.0039    1.7714 O   0  0  0  0  0  0  0  0  0  0  0  0
   -0.3816    0.5130    0.6114 C   0  0  0  0  0  0  0  0  0  0  0  0
   -0.5609    1.8169    0.3996 C   0  0  0  0  0  0  0  0  0  0  0  0
   -1.2969   -0.4508    0.1448 N   0  0  0  0  0  0  0  0  0  0  0  0
   -2.4771   -0.2231   -0.5753 C   0  0  0  0  0  0  0  0  0  0  0  0
   -3.2896   -1.4500   -0.9596 C   0  0  0  0  0  0  0  0  0  0  0  0
   -2.9422    0.8696   -0.9400 O   0  0  0  0  0  0  0  0  0  0  0  0
    1.9566   -2.1555    3.2633 H   0  0  0  0  0  0  0  0  0  0  0  0
    2.9087   -0.7050    2.6562 H   0  0  0  0  0  0  0  0  0  0  0  0
    2.9298   -2.2874    1.7836 H   0  0  0  0  0  0  0  0  0  0  0  0
    0.5058   -1.9887    1.3408 H   0  0  0  0  0  0  0  0  0  0  0  0
    0.1936    2.5226    0.7914 H   0  0  0  0  0  0  0  0  0  0  0  0
   -1.4110    2.1744   -0.1347 H   0  0  0  0  0  0  0  0  0  0  0  0
   -1.0678   -1.4706    0.3632 H   0  0  0  0  0  0  0  0  0  0  0  0
   -2.7428   -2.3704   -0.7728 H   0  0  0  0  0  0  0  0  0  0  0  0
   -4.2209   -1.4309   -0.3623 H   0  0  0  0  0  0  0  0  0  0  0  0
   -3.5914   -1.3356   -2.0204 H   0  0  0  0  0  0  0  0  0  0  0  0
  1  2  1  0
  1 11  1  0
  1 12  1  0
  1 13  1  0
  2  3  1  0
  2 14  1  0
  3  4  2  0
  3  5  1  0
  5  6  2  3
  5  7  1  0
  6 15  1  0
  6 16  1  0
  7  8  1  0
  7 17  1  0
  8  9  1  0
  8 10  2  0
  9 18  1  0
  9 19  1  0
  9 20  1  0
M  END

> <RosettaParamsInstructions>
M  ROOT 7
M  POLY_N_BB 7
M  POLY_CA_BB 5
M  POLY_C_BB 3
M  POLY_O_BB 4
M  POLY_IGNORE 1 10 9 14 11 12 13 18 19 20
M  POLY_UPPER 2
M  POLY_LOWER 8
M  POLY_CHG 0
M  POLY_PROPERTIES PROTEIN POLYMER ALPHA_AA ALIPHATIC
M  END

$$$$
DHA_new
     RDKit          3D

 20 19  0  0  0  0  0  0  0  0999 V2000
    2.6363   -1.0939    2.5840 C   0  0  0  0  0  0  0  0  0  0  0  0
    1.6922   -0.2373    1.8287 N   0  0  0  0  0  0  0  0  0  0  0  0
    0.5438   -0.8513    1.3120 C   0  0  0  0  0  0  0  0  0  0  0  0
    0.3589   -2.0761    1.5021 O   0  0  0  0  0  0  0  0  0  0  0  0
   -0.4512   -0.0713    0.5458 C   0  0  0  0  0  0  0  0  0  0  0  0
   -0.2617    1.2055    0.3457 C   0  0  0  0  0  0  0  0  0  0  0  0
   -1.5663   -0.7946    0.0749 N   0  0  0  0  0  0  0  0  0  0  0  0
   -2.6088   -0.2503   -0.6616 C   0  0  0  0  0  0  0  0  0  0  0  0
   -3.7382   -1.1631   -1.0948 C   0  0  0  0  0  0  0  0  0  0  0  0
   -2.7327    0.9357   -1.0214 O   0  0  0  0  0  0  0  0  0  0  0  0
    3.5160   -1.2173    1.9348 H   0  0  0  0  0  0  0  0  0  0  0  0
    2.1697   -2.0423    2.8644 H   0  0  0  0  0  0  0  0  0  0  0  0
    2.9210   -0.4659    3.4651 H   0  0  0  0  0  0  0  0  0  0  0  0
    1.9243    0.7618    1.7206 H   0  0  0  0  0  0  0  0  0  0  0  0
   -0.9435    1.8298   -0.2011 H   0  0  0  0  0  0  0  0  0  0  0  0
    0.6220    1.7402    0.7282 H   0  0  0  0  0  0  0  0  0  0  0  0
   -1.6270   -1.8374    0.2929 H   0  0  0  0  0  0  0  0  0  0  0  0
   -4.1127   -0.8407   -2.0744 H   0  0  0  0  0  0  0  0  0  0  0  0
   -4.5545   -0.9843   -0.3421 H   0  0  0  0  0  0  0  0  0  0  0  0
   -3.3939   -2.1993   -1.0629 H   0  0  0  0  0  0  0  0  0  0  0  0
  1  2  1  0
  1 11  1  0
  1 12  1  0
  1 13  1  0
  2  3  1  0
  2 14  1  0
  3  4  2  0
  3  5  1  0
  5  6  2  3
  5  7  1  0
  6 15  1  0
  6 16  1  0
  7  8  1  0
  7 17  1  0
  8  9  1  0
  8 10  2  0
  9 18  1  0
  9 19  1  0
  9 20  1  0
M  END

> <RosettaParamsInstructions>
M  ROOT 7
M  POLY_N_BB 7
M  POLY_CA_BB 5
M  POLY_C_BB 3
M  POLY_O_BB 4
M  POLY_IGNORE 1 10 9 14 11 12 13 18 19 20
M  POLY_UPPER 2
M  POLY_LOWER 8
M  POLY_CHG 0
M  POLY_PROPERTIES PROTEIN POLYMER ALPHA_AA ALIPHATIC
M  END

$$$$
DHA_new
     RDKit          3D

 20 19  0  0  0  0  0  0  0  0999 V2000
    2.6912   -1.0647    2.5842 C   0  0  0  0  0  0  0  0  0  0  0  0
    1.7046   -0.2635    1.8728 N   0  0  0  0  0  0  0  0  0  0  0  0
    0.5542   -0.8327    1.2992 C   0  0  0  0  0  0  0  0  0  0  0  0
    0.4219   -2.0957    1.4372 O   0  0  0  0  0  0  0  0  0  0  0  0
   -0.4879   -0.0962    0.5666 C   0  0  0  0  0  0  0  0  0  0  0  0
   -0.3673    1.2040    0.4155 C   0  0  0  0  0  0  0  0  0  0  0  0
   -1.5874   -0.8153    0.0482 N   0  0  0  0  0  0  0  0  0  0  0  0
   -2.6301   -0.2270   -0.6597 C   0  0  0  0  0  0  0  0  0  0  0  0
   -3.7386   -1.1480   -1.1487 C   0  0  0  0  0  0  0  0  0  0  0  0
   -2.7901    0.9593   -0.9549 O   0  0  0  0  0  0  0  0  0  0  0  0
    2.9628   -0.5004    3.4971 H   0  0  0  0  0  0  0  0  0  0  0  0
    2.2953   -2.0424    2.8955 H   0  0  0  0  0  0  0  0  0  0  0  0
    3.5805   -1.1611    1.9549 H   0  0  0  0  0  0  0  0  0  0  0  0
    1.8952    0.7381    1.8134 H   0  0  0  0  0  0  0  0  0  0  0  0
   -1.0312    1.8694   -0.0846 H   0  0  0  0  0  0  0  0  0  0  0  0
    0.5159    1.7330    0.8402 H   0  0  0  0  0  0  0  0  0  0  0  0
   -1.5960   -1.8706    0.2228 H   0  0  0  0  0  0  0  0  0  0  0  0
   -3.9817   -0.8253   -2.1853 H   0  0  0  0  0  0  0  0  0  0  0  0
   -4.6354   -1.0371   -0.5287 H   0  0  0  0  0  0  0  0  0  0  0  0
   -3.3823   -2.1763   -1.1449 H   0  0  0  0  0  0  0  0  0  0  0  0
  1  2  1  0
  1 11  1  0
  1 12  1  0
  1 13  1  0
  2  3  1  0
  2 14  1  0
  3  4  2  0
  3  5  1  0
  5  6  2  3
  5  7  1  0
  6 15  1  0
  6 16  1  0
  7  8  1  0
  7 17  1  0
  8  9  1  0
  8 10  2  0
  9 18  1  0
  9 19  1  0
  9 20  1  0
M  END

> <RosettaParamsInstructions>
M  ROOT 7
M  POLY_N_BB 7
M  POLY_CA_BB 5
M  POLY_C_BB 3
M  POLY_O_BB 4
M  POLY_IGNORE 1 10 9 14 11 12 13 18 19 20
M  POLY_UPPER 2
M  POLY_LOWER 8
M  POLY_CHG 0
M  POLY_PROPERTIES PROTEIN POLYMER ALPHA_AA ALIPHATIC
M  END

$$$$
DHA_new
     RDKit          3D

 20 19  0  0  0  0  0  0  0  0999 V2000
    2.6127   -1.0571    2.6489 C   0  0  0  0  0  0  0  0  0  0  0  0
    1.7159   -0.2468    1.8256 N   0  0  0  0  0  0  0  0  0  0  0  0
    0.5338   -0.8118    1.3450 C   0  0  0  0  0  0  0  0  0  0  0  0
    0.2698   -2.0190    1.6379 O   0  0  0  0  0  0  0  0  0  0  0  0
   -0.4441   -0.0707    0.4999 C   0  0  0  0  0  0  0  0  0  0  0  0
   -0.1868    1.1714    0.1901 C   0  0  0  0  0  0  0  0  0  0  0  0
   -1.5948   -0.7373    0.0752 N   0  0  0  0  0  0  0  0  0  0  0  0
   -2.6194   -0.2212   -0.7138 C   0  0  0  0  0  0  0  0  0  0  0  0
   -3.7770   -1.1546   -1.0437 C   0  0  0  0  0  0  0  0  0  0  0  0
   -2.6640    0.9303   -1.1663 O   0  0  0  0  0  0  0  0  0  0  0  0
    3.2268   -1.6583    1.9660 H   0  0  0  0  0  0  0  0  0  0  0  0
    1.9847   -1.7020    3.3062 H   0  0  0  0  0  0  0  0  0  0  0  0
    3.1928   -0.4011    3.3018 H   0  0  0  0  0  0  0  0  0  0  0  0
    1.9998    0.7319    1.6289 H   0  0  0  0  0  0  0  0  0  0  0  0
    0.7235    1.6848    0.5312 H   0  0  0  0  0  0  0  0  0  0  0  0
   -0.8442    1.7545   -0.4095 H   0  0  0  0  0  0  0  0  0  0  0  0
   -1.6814   -1.7499    0.3996 H   0  0  0  0  0  0  0  0  0  0  0  0
   -4.2935   -0.7724   -1.9224 H   0  0  0  0  0  0  0  0  0  0  0  0
   -3.3212   -2.1440   -1.2053 H   0  0  0  0  0  0  0  0  0  0  0  0
   -4.4397   -1.1790   -0.1544 H   0  0  0  0  0  0  0  0  0  0  0  0
  1  2  1  0
  1 11  1  0
  1 12  1  0
  1 13  1  0
  2  3  1  0
  2 14  1  0
  3  4  2  0
  3  5  1  0
  5  6  2  3
  5  7  1  0
  6 15  1  0
  6 16  1  0
  7  8  1  0
  7 17  1  0
  8  9  1  0
  8 10  2  0
  9 18  1  0
  9 19  1  0
  9 20  1  0
M  END

> <RosettaParamsInstructions>
M  ROOT 7
M  POLY_N_BB 7
M  POLY_CA_BB 5
M  POLY_C_BB 3
M  POLY_O_BB 4
M  POLY_IGNORE 1 10 9 14 11 12 13 18 19 20
M  POLY_UPPER 2
M  POLY_LOWER 8
M  POLY_CHG 0
M  POLY_PROPERTIES PROTEIN POLYMER ALPHA_AA ALIPHATIC
M  END

$$$$
DHA_new
     RDKit          3D

 20 19  0  0  0  0  0  0  0  0999 V2000
    2.6805   -1.0475    2.5827 C   0  0  0  0  0  0  0  0  0  0  0  0
    1.6855   -0.2368    1.8503 N   0  0  0  0  0  0  0  0  0  0  0  0
    0.5420   -0.8363    1.3015 C   0  0  0  0  0  0  0  0  0  0  0  0
    0.3573   -2.0973    1.4355 O   0  0  0  0  0  0  0  0  0  0  0  0
   -0.4534   -0.0693    0.5773 C   0  0  0  0  0  0  0  0  0  0  0  0
   -0.2812    1.2193    0.4309 C   0  0  0  0  0  0  0  0  0  0  0  0
   -1.5784   -0.7918    0.0628 N   0  0  0  0  0  0  0  0  0  0  0  0
   -2.6393   -0.2600   -0.6543 C   0  0  0  0  0  0  0  0  0  0  0  0
   -3.7481   -1.1528   -1.1269 C   0  0  0  0  0  0  0  0  0  0  0  0
   -2.7557    0.9380   -0.9509 O   0  0  0  0  0  0  0  0  0  0  0  0
    2.1800   -1.9964    2.8716 H   0  0  0  0  0  0  0  0  0  0  0  0
    2.9843   -0.4731    3.4794 H   0  0  0  0  0  0  0  0  0  0  0  0
    3.5224   -1.2271    1.8945 H   0  0  0  0  0  0  0  0  0  0  0  0
    1.9106    0.7520    1.7917 H   0  0  0  0  0  0  0  0  0  0  0  0
    0.5945    1.7084    0.8454 H   0  0  0  0  0  0  0  0  0  0  0  0
   -0.9840    1.8571   -0.0989 H   0  0  0  0  0  0  0  0  0  0  0  0
   -1.6201   -1.8515    0.2412 H   0  0  0  0  0  0  0  0  0  0  0  0
   -3.3889   -2.1866   -1.2679 H   0  0  0  0  0  0  0  0  0  0  0  0
   -4.0669   -0.8039   -2.1442 H   0  0  0  0  0  0  0  0  0  0  0  0
   -4.5474   -1.0965   -0.3810 H   0  0  0  0  0  0  0  0  0  0  0  0
  1  2  1  0
  1 11  1  0
  1 12  1  0
  1 13  1  0
  2  3  1  0
  2 14  1  0
  3  4  2  0
  3  5  1  0
  5  6  2  3
  5  7  1  0
  6 15  1  0
  6 16  1  0
  7  8  1  0
  7 17  1  0
  8  9  1  0
  8 10  2  0
  9 18  1  0
  9 19  1  0
  9 20  1  0
M  END

> <RosettaParamsInstructions>
M  ROOT 7
M  POLY_N_BB 7
M  POLY_CA_BB 5
M  POLY_C_BB 3
M  POLY_O_BB 4
M  POLY_IGNORE 1 10 9 14 11 12 13 18 19 20
M  POLY_UPPER 2
M  POLY_LOWER 8
M  POLY_CHG 0
M  POLY_PROPERTIES PROTEIN POLYMER ALPHA_AA ALIPHATIC
M  END

$$$$
DHA_new
     RDKit          3D

 20 19  0  0  0  0  0  0  0  0999 V2000
    2.6073   -1.0327    2.6453 C   0  0  0  0  0  0  0  0  0  0  0  0
    1.6687   -0.1741    1.8981 N   0  0  0  0  0  0  0  0  0  0  0  0
    0.5527   -0.8145    1.3355 C   0  0  0  0  0  0  0  0  0  0  0  0
    0.3629   -2.0653    1.4637 O   0  0  0  0  0  0  0  0  0  0  0  0
   -0.4394   -0.0710    0.5779 C   0  0  0  0  0  0  0  0  0  0  0  0
   -0.2667    1.2287    0.4295 C   0  0  0  0  0  0  0  0  0  0  0  0
   -1.5432   -0.7718    0.0347 N   0  0  0  0  0  0  0  0  0  0  0  0
   -2.6070   -0.2808   -0.7176 C   0  0  0  0  0  0  0  0  0  0  0  0
   -3.7132   -1.1752   -1.2244 C   0  0  0  0  0  0  0  0  0  0  0  0
   -2.7364    0.9204   -1.0330 O   0  0  0  0  0  0  0  0  0  0  0  0
    3.2678   -0.4479    3.3040 H   0  0  0  0  0  0  0  0  0  0  0  0
    3.1923   -1.6190    1.9275 H   0  0  0  0  0  0  0  0  0  0  0  0
    1.9643   -1.7334    3.2318 H   0  0  0  0  0  0  0  0  0  0  0  0
    1.9228    0.8122    1.8613 H   0  0  0  0  0  0  0  0  0  0  0  0
   -0.9501    1.8805   -0.1197 H   0  0  0  0  0  0  0  0  0  0  0  0
    0.5866    1.7425    0.8550 H   0  0  0  0  0  0  0  0  0  0  0  0
   -1.5606   -1.8197    0.2294 H   0  0  0  0  0  0  0  0  0  0  0  0
   -3.5060   -1.4621   -2.2566 H   0  0  0  0  0  0  0  0  0  0  0  0
   -3.7487   -2.1128   -0.6163 H   0  0  0  0  0  0  0  0  0  0  0  0
   -4.6604   -0.6564   -1.0852 H   0  0  0  0  0  0  0  0  0  0  0  0
  1  2  1  0
  1 11  1  0
  1 12  1  0
  1 13  1  0
  2  3  1  0
  2 14  1  0
  3  4  2  0
  3  5  1  0
  5  6  2  3
  5  7  1  0
  6 15  1  0
  6 16  1  0
  7  8  1  0
  7 17  1  0
  8  9  1  0
  8 10  2  0
  9 18  1  0
  9 19  1  0
  9 20  1  0
M  END

> <RosettaParamsInstructions>
M  ROOT 7
M  POLY_N_BB 7
M  POLY_CA_BB 5
M  POLY_C_BB 3
M  POLY_O_BB 4
M  POLY_IGNORE 1 10 9 14 11 12 13 18 19 20
M  POLY_UPPER 2
M  POLY_LOWER 8
M  POLY_CHG 0
M  POLY_PROPERTIES PROTEIN POLYMER ALPHA_AA ALIPHATIC
M  END

$$$$
DHA_new
     RDKit          3D

 20 19  0  0  0  0  0  0  0  0999 V2000
    2.2825   -1.5853    2.4302 C   0  0  0  0  0  0  0  0  0  0  0  0
    1.0739   -1.2272    1.6629 N   0  0  0  0  0  0  0  0  0  0  0  0
    0.8460    0.0937    1.3206 C   0  0  0  0  0  0  0  0  0  0  0  0
    1.6810    0.9789    1.6722 O   0  0  0  0  0  0  0  0  0  0  0  0
   -0.3493    0.5037    0.5529 C   0  0  0  0  0  0  0  0  0  0  0  0
   -0.5010    1.7838    0.2620 C   0  0  0  0  0  0  0  0  0  0  0  0
   -1.2810   -0.4558    0.1561 N   0  0  0  0  0  0  0  0  0  0  0  0
   -2.4561   -0.2299   -0.5706 C   0  0  0  0  0  0  0  0  0  0  0  0
   -3.3312   -1.4220   -0.8976 C   0  0  0  0  0  0  0  0  0  0  0  0
   -2.8792    0.8571   -0.9907 O   0  0  0  0  0  0  0  0  0  0  0  0
    2.7351   -0.6707    2.8268 H   0  0  0  0  0  0  0  0  0  0  0  0
    1.9454   -2.2848    3.2229 H   0  0  0  0  0  0  0  0  0  0  0  0
    2.9946   -2.0991    1.7750 H   0  0  0  0  0  0  0  0  0  0  0  0
    0.4404   -1.9963    1.4114 H   0  0  0  0  0  0  0  0  0  0  0  0
   -1.3183    2.1508   -0.2766 H   0  0  0  0  0  0  0  0  0  0  0  0
    0.2508    2.4790    0.5946 H   0  0  0  0  0  0  0  0  0  0  0  0
   -1.0822   -1.4651    0.4322 H   0  0  0  0  0  0  0  0  0  0  0  0
   -3.2131   -2.1287   -0.0657 H   0  0  0  0  0  0  0  0  0  0  0  0
   -3.0526   -1.8332   -1.8867 H   0  0  0  0  0  0  0  0  0  0  0  0
   -4.3921   -1.1012   -0.8911 H   0  0  0  0  0  0  0  0  0  0  0  0
  1  2  1  0
  1 11  1  0
  1 12  1  0
  1 13  1  0
  2  3  1  0
  2 14  1  0
  3  4  2  0
  3  5  1  0
  5  6  2  3
  5  7  1  0
  6 15  1  0
  6 16  1  0
  7  8  1  0
  7 17  1  0
  8  9  1  0
  8 10  2  0
  9 18  1  0
  9 19  1  0
  9 20  1  0
M  END

> <RosettaParamsInstructions>
M  ROOT 7
M  POLY_N_BB 7
M  POLY_CA_BB 5
M  POLY_C_BB 3
M  POLY_O_BB 4
M  POLY_IGNORE 1 10 9 14 11 12 13 18 19 20
M  POLY_UPPER 2
M  POLY_LOWER 8
M  POLY_CHG 0
M  POLY_PROPERTIES PROTEIN POLYMER ALPHA_AA ALIPHATIC
M  END

$$$$
DHA_new
     RDKit          3D

 20 19  0  0  0  0  0  0  0  0999 V2000
    2.6572   -1.0618    2.5682 C   0  0  0  0  0  0  0  0  0  0  0  0
    1.6556   -0.2179    1.9063 N   0  0  0  0  0  0  0  0  0  0  0  0
    0.5587   -0.8168    1.2912 C   0  0  0  0  0  0  0  0  0  0  0  0
    0.4575   -2.0790    1.3216 O   0  0  0  0  0  0  0  0  0  0  0  0
   -0.4767   -0.0431    0.6140 C   0  0  0  0  0  0  0  0  0  0  0  0
   -0.3679    1.2653    0.5849 C   0  0  0  0  0  0  0  0  0  0  0  0
   -1.5544   -0.7738    0.0200 N   0  0  0  0  0  0  0  0  0  0  0  0
   -2.6447   -0.2364   -0.6731 C   0  0  0  0  0  0  0  0  0  0  0  0
   -3.6729   -1.1751   -1.2223 C   0  0  0  0  0  0  0  0  0  0  0  0
   -2.8349    0.9733   -0.8746 O   0  0  0  0  0  0  0  0  0  0  0  0
    2.4103   -1.0770    3.6384 H   0  0  0  0  0  0  0  0  0  0  0  0
    3.6572   -0.6809    2.3522 H   0  0  0  0  0  0  0  0  0  0  0  0
    2.6018   -2.0873    2.1297 H   0  0  0  0  0  0  0  0  0  0  0  0
    1.8321    0.7918    1.9393 H   0  0  0  0  0  0  0  0  0  0  0  0
   -1.0985    1.9010    0.1005 H   0  0  0  0  0  0  0  0  0  0  0  0
    0.4652    1.7709    1.0482 H   0  0  0  0  0  0  0  0  0  0  0  0
   -1.4943   -1.8374    0.1329 H   0  0  0  0  0  0  0  0  0  0  0  0
   -3.4012   -2.2195   -0.9795 H   0  0  0  0  0  0  0  0  0  0  0  0
   -3.6838   -1.1259   -2.3447 H   0  0  0  0  0  0  0  0  0  0  0  0
   -4.6726   -0.9226   -0.8124 H   0  0  0  0  0  0  0  0  0  0  0  0
  1  2  1  0
  1 11  1  0
  1 12  1  0
  1 13  1  0
  2  3  1  0
  2 14  1  0
  3  4  2  0
  3  5  1  0
  5  6  2  3
  5  7  1  0
  6 15  1  0
  6 16  1  0
  7  8  1  0
  7 17  1  0
  8  9  1  0
  8 10  2  0
  9 18  1  0
  9 19  1  0
  9 20  1  0
M  END

> <RosettaParamsInstructions>
M  ROOT 7
M  POLY_N_BB 7
M  POLY_CA_BB 5
M  POLY_C_BB 3
M  POLY_O_BB 4
M  POLY_IGNORE 1 10 9 14 11 12 13 18 19 20
M  POLY_UPPER 2
M  POLY_LOWER 8
M  POLY_CHG 0
M  POLY_PROPERTIES PROTEIN POLYMER ALPHA_AA ALIPHATIC
M  END

$$$$
DHA_new
     RDKit          3D

 20 19  0  0  0  0  0  0  0  0999 V2000
    2.6077   -1.0480    2.6540 C   0  0  0  0  0  0  0  0  0  0  0  0
    1.6864   -0.2377    1.8354 N   0  0  0  0  0  0  0  0  0  0  0  0
    0.5182   -0.8172    1.3391 C   0  0  0  0  0  0  0  0  0  0  0  0
    0.2744   -2.0427    1.6078 O   0  0  0  0  0  0  0  0  0  0  0  0
   -0.4236   -0.0660    0.5282 C   0  0  0  0  0  0  0  0  0  0  0  0
   -0.1812    1.1993    0.2452 C   0  0  0  0  0  0  0  0  0  0  0  0
   -1.5762   -0.7327    0.0705 N   0  0  0  0  0  0  0  0  0  0  0  0
   -2.6272   -0.2547   -0.7128 C   0  0  0  0  0  0  0  0  0  0  0  0
   -3.7542   -1.1432   -1.0807 C   0  0  0  0  0  0  0  0  0  0  0  0
   -2.6652    0.9123   -1.1287 O   0  0  0  0  0  0  0  0  0  0  0  0
    3.5147   -1.2698    2.0579 H   0  0  0  0  0  0  0  0  0  0  0  0
    2.1221   -2.0155    2.9010 H   0  0  0  0  0  0  0  0  0  0  0  0
    2.8346   -0.4932    3.5834 H   0  0  0  0  0  0  0  0  0  0  0  0
    1.9808    0.7409    1.6798 H   0  0  0  0  0  0  0  0  0  0  0  0
   -0.8175    1.8408   -0.3478 H   0  0  0  0  0  0  0  0  0  0  0  0
    0.7201    1.7271    0.6009 H   0  0  0  0  0  0  0  0  0  0  0  0
   -1.6702   -1.7643    0.3626 H   0  0  0  0  0  0  0  0  0  0  0  0
   -3.4744   -1.7574   -1.9410 H   0  0  0  0  0  0  0  0  0  0  0  0
   -3.9852   -1.8342   -0.2229 H   0  0  0  0  0  0  0  0  0  0  0  0
   -4.6905   -0.5961   -1.2912 H   0  0  0  0  0  0  0  0  0  0  0  0
  1  2  1  0
  1 11  1  0
  1 12  1  0
  1 13  1  0
  2  3  1  0
  2 14  1  0
  3  4  2  0
  3  5  1  0
  5  6  2  3
  5  7  1  0
  6 15  1  0
  6 16  1  0
  7  8  1  0
  7 17  1  0
  8  9  1  0
  8 10  2  0
  9 18  1  0
  9 19  1  0
  9 20  1  0
M  END

> <RosettaParamsInstructions>
M  ROOT 7
M  POLY_N_BB 7
M  POLY_CA_BB 5
M  POLY_C_BB 3
M  POLY_O_BB 4
M  POLY_IGNORE 1 10 9 14 11 12 13 18 19 20
M  POLY_UPPER 2
M  POLY_LOWER 8
M  POLY_CHG 0
M  POLY_PROPERTIES PROTEIN POLYMER ALPHA_AA ALIPHATIC
M  END

$$$$
DHA_new
     RDKit          3D

 20 19  0  0  0  0  0  0  0  0999 V2000
    2.6642   -1.0936    2.5649 C   0  0  0  0  0  0  0  0  0  0  0  0
    1.6929   -0.2460    1.8541 N   0  0  0  0  0  0  0  0  0  0  0  0
    0.5574   -0.8184    1.2914 C   0  0  0  0  0  0  0  0  0  0  0  0
    0.3695   -2.0778    1.3980 O   0  0  0  0  0  0  0  0  0  0  0  0
   -0.4505   -0.0577    0.5742 C   0  0  0  0  0  0  0  0  0  0  0  0
   -0.3343    1.2443    0.4186 C   0  0  0  0  0  0  0  0  0  0  0  0
   -1.5746   -0.7535    0.0393 N   0  0  0  0  0  0  0  0  0  0  0  0
   -2.6433   -0.1981   -0.6780 C   0  0  0  0  0  0  0  0  0  0  0  0
   -3.7198   -1.1542   -1.1407 C   0  0  0  0  0  0  0  0  0  0  0  0
   -2.8422    0.9862   -0.9970 O   0  0  0  0  0  0  0  0  0  0  0  0
    3.6801   -0.9548    2.1369 H   0  0  0  0  0  0  0  0  0  0  0  0
    2.6553   -0.7283    3.6219 H   0  0  0  0  0  0  0  0  0  0  0  0
    2.3462   -2.1414    2.5860 H   0  0  0  0  0  0  0  0  0  0  0  0
    1.9042    0.7590    1.8047 H   0  0  0  0  0  0  0  0  0  0  0  0
   -1.0569    1.8674   -0.1089 H   0  0  0  0  0  0  0  0  0  0  0  0
    0.5500    1.7279    0.8503 H   0  0  0  0  0  0  0  0  0  0  0  0
   -1.5655   -1.7964    0.2235 H   0  0  0  0  0  0  0  0  0  0  0  0
   -4.6528   -0.6509   -1.3740 H   0  0  0  0  0  0  0  0  0  0  0  0
   -3.3308   -1.6878   -2.0174 H   0  0  0  0  0  0  0  0  0  0  0  0
   -3.8556   -1.8781   -0.3071 H   0  0  0  0  0  0  0  0  0  0  0  0
  1  2  1  0
  1 11  1  0
  1 12  1  0
  1 13  1  0
  2  3  1  0
  2 14  1  0
  3  4  2  0
  3  5  1  0
  5  6  2  3
  5  7  1  0
  6 15  1  0
  6 16  1  0
  7  8  1  0
  7 17  1  0
  8  9  1  0
  8 10  2  0
  9 18  1  0
  9 19  1  0
  9 20  1  0
M  END

> <RosettaParamsInstructions>
M  ROOT 7
M  POLY_N_BB 7
M  POLY_CA_BB 5
M  POLY_C_BB 3
M  POLY_O_BB 4
M  POLY_IGNORE 1 10 9 14 11 12 13 18 19 20
M  POLY_UPPER 2
M  POLY_LOWER 8
M  POLY_CHG 0
M  POLY_PROPERTIES PROTEIN POLYMER ALPHA_AA ALIPHATIC
M  END

$$$$
DHA_new
     RDKit          3D

 20 19  0  0  0  0  0  0  0  0999 V2000
    2.6552   -1.0528    2.5601 C   0  0  0  0  0  0  0  0  0  0  0  0
    1.6698   -0.2229    1.8590 N   0  0  0  0  0  0  0  0  0  0  0  0
    0.5536   -0.8194    1.2902 C   0  0  0  0  0  0  0  0  0  0  0  0
    0.4252   -2.0837    1.4001 O   0  0  0  0  0  0  0  0  0  0  0  0
   -0.4569   -0.0281    0.5800 C   0  0  0  0  0  0  0  0  0  0  0  0
   -0.2947    1.2676    0.4854 C   0  0  0  0  0  0  0  0  0  0  0  0
   -1.5523   -0.7512    0.0420 N   0  0  0  0  0  0  0  0  0  0  0  0
   -2.6419   -0.2577   -0.6710 C   0  0  0  0  0  0  0  0  0  0  0  0
   -3.7130   -1.1885   -1.1643 C   0  0  0  0  0  0  0  0  0  0  0  0
   -2.7713    0.9548   -0.9250 O   0  0  0  0  0  0  0  0  0  0  0  0
    2.0558   -1.7946    3.1639 H   0  0  0  0  0  0  0  0  0  0  0  0
    3.2660   -0.4774    3.2607 H   0  0  0  0  0  0  0  0  0  0  0  0
    3.2523   -1.5904    1.7924 H   0  0  0  0  0  0  0  0  0  0  0  0
    1.8838    0.7763    1.8383 H   0  0  0  0  0  0  0  0  0  0  0  0
   -1.0146    1.8940   -0.0298 H   0  0  0  0  0  0  0  0  0  0  0  0
    0.5573    1.7898    0.9098 H   0  0  0  0  0  0  0  0  0  0  0  0
   -1.5522   -1.8114    0.1976 H   0  0  0  0  0  0  0  0  0  0  0  0
   -4.3504   -0.6901   -1.9154 H   0  0  0  0  0  0  0  0  0  0  0  0
   -4.3164   -1.4879   -0.2877 H   0  0  0  0  0  0  0  0  0  0  0  0
   -3.2619   -2.0785   -1.6455 H   0  0  0  0  0  0  0  0  0  0  0  0
  1  2  1  0
  1 11  1  0
  1 12  1  0
  1 13  1  0
  2  3  1  0
  2 14  1  0
  3  4  2  0
  3  5  1  0
  5  6  2  3
  5  7  1  0
  6 15  1  0
  6 16  1  0
  7  8  1  0
  7 17  1  0
  8  9  1  0
  8 10  2  0
  9 18  1  0
  9 19  1  0
  9 20  1  0
M  END

> <RosettaParamsInstructions>
M  ROOT 7
M  POLY_N_BB 7
M  POLY_CA_BB 5
M  POLY_C_BB 3
M  POLY_O_BB 4
M  POLY_IGNORE 1 10 9 14 11 12 13 18 19 20
M  POLY_UPPER 2
M  POLY_LOWER 8
M  POLY_CHG 0
M  POLY_PROPERTIES PROTEIN POLYMER ALPHA_AA ALIPHATIC
M  END

$$$$
DHA_new
     RDKit          3D

 20 19  0  0  0  0  0  0  0  0999 V2000
    2.6634   -1.0502    2.5728 C   0  0  0  0  0  0  0  0  0  0  0  0
    1.6905   -0.2507    1.8714 N   0  0  0  0  0  0  0  0  0  0  0  0
    0.5624   -0.8271    1.3007 C   0  0  0  0  0  0  0  0  0  0  0  0
    0.3980   -2.0683    1.4042 O   0  0  0  0  0  0  0  0  0  0  0  0
   -0.4621   -0.0525    0.5729 C   0  0  0  0  0  0  0  0  0  0  0  0
   -0.3519    1.2424    0.4288 C   0  0  0  0  0  0  0  0  0  0  0  0
   -1.5771   -0.7368    0.0274 N   0  0  0  0  0  0  0  0  0  0  0  0
   -2.6482   -0.2198   -0.6861 C   0  0  0  0  0  0  0  0  0  0  0  0
   -3.7168   -1.1849   -1.1591 C   0  0  0  0  0  0  0  0  0  0  0  0
   -2.7878    0.9737   -0.9608 O   0  0  0  0  0  0  0  0  0  0  0  0
    2.8657   -2.0186    2.0477 H   0  0  0  0  0  0  0  0  0  0  0  0
    3.6315   -0.5256    2.6792 H   0  0  0  0  0  0  0  0  0  0  0  0
    2.2961   -1.3585    3.5901 H   0  0  0  0  0  0  0  0  0  0  0  0
    1.8707    0.7600    1.8144 H   0  0  0  0  0  0  0  0  0  0  0  0
   -1.0254    1.8848   -0.0711 H   0  0  0  0  0  0  0  0  0  0  0  0
    0.5216    1.7698    0.8576 H   0  0  0  0  0  0  0  0  0  0  0  0
   -1.5814   -1.7995    0.1963 H   0  0  0  0  0  0  0  0  0  0  0  0
   -3.4601   -1.5456   -2.1650 H   0  0  0  0  0  0  0  0  0  0  0  0
   -4.6688   -0.6379   -1.1687 H   0  0  0  0  0  0  0  0  0  0  0  0
   -3.8268   -2.0070   -0.4119 H   0  0  0  0  0  0  0  0  0  0  0  0
  1  2  1  0
  1 11  1  0
  1 12  1  0
  1 13  1  0
  2  3  1  0
  2 14  1  0
  3  4  2  0
  3  5  1  0
  5  6  2  3
  5  7  1  0
  6 15  1  0
  6 16  1  0
  7  8  1  0
  7 17  1  0
  8  9  1  0
  8 10  2  0
  9 18  1  0
  9 19  1  0
  9 20  1  0
M  END

> <RosettaParamsInstructions>
M  ROOT 7
M  POLY_N_BB 7
M  POLY_CA_BB 5
M  POLY_C_BB 3
M  POLY_O_BB 4
M  POLY_IGNORE 1 10 9 14 11 12 13 18 19 20
M  POLY_UPPER 2
M  POLY_LOWER 8
M  POLY_CHG 0
M  POLY_PROPERTIES PROTEIN POLYMER ALPHA_AA ALIPHATIC
M  END

$$$$
DHA_new
     RDKit          3D

 20 19  0  0  0  0  0  0  0  0999 V2000
    2.6290   -1.0656    2.5798 C   0  0  0  0  0  0  0  0  0  0  0  0
    1.6813   -0.2354    1.8200 N   0  0  0  0  0  0  0  0  0  0  0  0
    0.5438   -0.8342    1.3157 C   0  0  0  0  0  0  0  0  0  0  0  0
    0.3212   -2.0606    1.5004 O   0  0  0  0  0  0  0  0  0  0  0  0
   -0.4705   -0.0826    0.5375 C   0  0  0  0  0  0  0  0  0  0  0  0
   -0.2448    1.2007    0.3401 C   0  0  0  0  0  0  0  0  0  0  0  0
   -1.6074   -0.7615    0.0540 N   0  0  0  0  0  0  0  0  0  0  0  0
   -2.6334   -0.2082   -0.6802 C   0  0  0  0  0  0  0  0  0  0  0  0
   -3.7567   -1.1615   -1.0858 C   0  0  0  0  0  0  0  0  0  0  0  0
   -2.7182    0.9837   -1.0338 O   0  0  0  0  0  0  0  0  0  0  0  0
    3.5677   -1.1439    2.0107 H   0  0  0  0  0  0  0  0  0  0  0  0
    2.2138   -2.0598    2.7899 H   0  0  0  0  0  0  0  0  0  0  0  0
    2.8117   -0.5243    3.5286 H   0  0  0  0  0  0  0  0  0  0  0  0
    1.9570    0.7489    1.7278 H   0  0  0  0  0  0  0  0  0  0  0  0
   -0.9439    1.7928   -0.2152 H   0  0  0  0  0  0  0  0  0  0  0  0
    0.6632    1.6913    0.7394 H   0  0  0  0  0  0  0  0  0  0  0  0
   -1.6413   -1.7974    0.2990 H   0  0  0  0  0  0  0  0  0  0  0  0
   -3.2957   -2.1548   -1.2971 H   0  0  0  0  0  0  0  0  0  0  0  0
   -4.4377   -1.2417   -0.2260 H   0  0  0  0  0  0  0  0  0  0  0  0
   -4.2456   -0.7382   -1.9640 H   0  0  0  0  0  0  0  0  0  0  0  0
  1  2  1  0
  1 11  1  0
  1 12  1  0
  1 13  1  0
  2  3  1  0
  2 14  1  0
  3  4  2  0
  3  5  1  0
  5  6  2  3
  5  7  1  0
  6 15  1  0
  6 16  1  0
  7  8  1  0
  7 17  1  0
  8  9  1  0
  8 10  2  0
  9 18  1  0
  9 19  1  0
  9 20  1  0
M  END

> <RosettaParamsInstructions>
M  ROOT 7
M  POLY_N_BB 7
M  POLY_CA_BB 5
M  POLY_C_BB 3
M  POLY_O_BB 4
M  POLY_IGNORE 1 10 9 14 11 12 13 18 19 20
M  POLY_UPPER 2
M  POLY_LOWER 8
M  POLY_CHG 0
M  POLY_PROPERTIES PROTEIN POLYMER ALPHA_AA ALIPHATIC
M  END

$$$$
DHA_new
     RDKit          3D

 20 19  0  0  0  0  0  0  0  0999 V2000
    2.6724   -1.0738    2.5971 C   0  0  0  0  0  0  0  0  0  0  0  0
    1.6865   -0.2530    1.8759 N   0  0  0  0  0  0  0  0  0  0  0  0
    0.5386   -0.8294    1.3071 C   0  0  0  0  0  0  0  0  0  0  0  0
    0.3462   -2.0928    1.4181 O   0  0  0  0  0  0  0  0  0  0  0  0
   -0.4866   -0.0562    0.5713 C   0  0  0  0  0  0  0  0  0  0  0  0
   -0.3203    1.2327    0.4406 C   0  0  0  0  0  0  0  0  0  0  0  0
   -1.5902   -0.7672    0.0523 N   0  0  0  0  0  0  0  0  0  0  0  0
   -2.6552   -0.2159   -0.6674 C   0  0  0  0  0  0  0  0  0  0  0  0
   -3.7383   -1.1515   -1.1348 C   0  0  0  0  0  0  0  0  0  0  0  0
   -2.7710    1.0085   -0.9516 O   0  0  0  0  0  0  0  0  0  0  0  0
    2.3536   -2.1284    2.5481 H   0  0  0  0  0  0  0  0  0  0  0  0
    3.6494   -0.9597    2.0577 H   0  0  0  0  0  0  0  0  0  0  0  0
    2.8125   -0.6901    3.6159 H   0  0  0  0  0  0  0  0  0  0  0  0
    1.9060    0.7564    1.8258 H   0  0  0  0  0  0  0  0  0  0  0  0
    0.5593    1.7357    0.8656 H   0  0  0  0  0  0  0  0  0  0  0  0
   -1.0086    1.8597   -0.0725 H   0  0  0  0  0  0  0  0  0  0  0  0
   -1.6471   -1.8245    0.2060 H   0  0  0  0  0  0  0  0  0  0  0  0
   -3.2464   -1.8481   -1.8332 H   0  0  0  0  0  0  0  0  0  0  0  0
   -4.5223   -0.6270   -1.6809 H   0  0  0  0  0  0  0  0  0  0  0  0
   -4.1450   -1.7277   -0.3003 H   0  0  0  0  0  0  0  0  0  0  0  0
  1  2  1  0
  1 11  1  0
  1 12  1  0
  1 13  1  0
  2  3  1  0
  2 14  1  0
  3  4  2  0
  3  5  1  0
  5  6  2  3
  5  7  1  0
  6 15  1  0
  6 16  1  0
  7  8  1  0
  7 17  1  0
  8  9  1  0
  8 10  2  0
  9 18  1  0
  9 19  1  0
  9 20  1  0
M  END

> <RosettaParamsInstructions>
M  ROOT 7
M  POLY_N_BB 7
M  POLY_CA_BB 5
M  POLY_C_BB 3
M  POLY_O_BB 4
M  POLY_IGNORE 1 10 9 14 11 12 13 18 19 20
M  POLY_UPPER 2
M  POLY_LOWER 8
M  POLY_CHG 0
M  POLY_PROPERTIES PROTEIN POLYMER ALPHA_AA ALIPHATIC
M  END

$$$$
DHA_new
     RDKit          3D

 20 19  0  0  0  0  0  0  0  0999 V2000
    2.6678   -1.0451    2.5760 C   0  0  0  0  0  0  0  0  0  0  0  0
    1.6613   -0.2629    1.8543 N   0  0  0  0  0  0  0  0  0  0  0  0
    0.5312   -0.8304    1.2879 C   0  0  0  0  0  0  0  0  0  0  0  0
    0.3571   -2.0957    1.3994 O   0  0  0  0  0  0  0  0  0  0  0  0
   -0.4754   -0.0578    0.5677 C   0  0  0  0  0  0  0  0  0  0  0  0
   -0.2984    1.2428    0.4519 C   0  0  0  0  0  0  0  0  0  0  0  0
   -1.5801   -0.7693    0.0405 N   0  0  0  0  0  0  0  0  0  0  0  0
   -2.6373   -0.2283   -0.6703 C   0  0  0  0  0  0  0  0  0  0  0  0
   -3.7371   -1.1456   -1.1599 C   0  0  0  0  0  0  0  0  0  0  0  0
   -2.7856    0.9570   -0.9572 O   0  0  0  0  0  0  0  0  0  0  0  0
    2.7166   -2.0881    2.2148 H   0  0  0  0  0  0  0  0  0  0  0  0
    3.6826   -0.6034    2.4489 H   0  0  0  0  0  0  0  0  0  0  0  0
    2.3797   -1.0966    3.6476 H   0  0  0  0  0  0  0  0  0  0  0  0
    1.8574    0.7497    1.7983 H   0  0  0  0  0  0  0  0  0  0  0  0
    0.5622    1.7628    0.8684 H   0  0  0  0  0  0  0  0  0  0  0  0
   -1.0239    1.8448   -0.0748 H   0  0  0  0  0  0  0  0  0  0  0  0
   -1.6013   -1.8249    0.2062 H   0  0  0  0  0  0  0  0  0  0  0  0
   -4.6793   -0.6171   -1.2947 H   0  0  0  0  0  0  0  0  0  0  0  0
   -3.3635   -1.6068   -2.0827 H   0  0  0  0  0  0  0  0  0  0  0  0
   -3.8405   -1.9371   -0.3814 H   0  0  0  0  0  0  0  0  0  0  0  0
  1  2  1  0
  1 11  1  0
  1 12  1  0
  1 13  1  0
  2  3  1  0
  2 14  1  0
  3  4  2  0
  3  5  1  0
  5  6  2  3
  5  7  1  0
  6 15  1  0
  6 16  1  0
  7  8  1  0
  7 17  1  0
  8  9  1  0
  8 10  2  0
  9 18  1  0
  9 19  1  0
  9 20  1  0
M  END

> <RosettaParamsInstructions>
M  ROOT 7
M  POLY_N_BB 7
M  POLY_CA_BB 5
M  POLY_C_BB 3
M  POLY_O_BB 4
M  POLY_IGNORE 1 10 9 14 11 12 13 18 19 20
M  POLY_UPPER 2
M  POLY_LOWER 8
M  POLY_CHG 0
M  POLY_PROPERTIES PROTEIN POLYMER ALPHA_AA ALIPHATIC
M  END

$$$$
DHA_new
     RDKit          3D

 20 19  0  0  0  0  0  0  0  0999 V2000
    2.6717   -1.0644    2.5630 C   0  0  0  0  0  0  0  0  0  0  0  0
    1.6612   -0.2503    1.9075 N   0  0  0  0  0  0  0  0  0  0  0  0
    0.5528   -0.8168    1.2754 C   0  0  0  0  0  0  0  0  0  0  0  0
    0.4521   -2.0898    1.2908 O   0  0  0  0  0  0  0  0  0  0  0  0
   -0.4977   -0.0237    0.5971 C   0  0  0  0  0  0  0  0  0  0  0  0
   -0.3906    1.2678    0.5844 C   0  0  0  0  0  0  0  0  0  0  0  0
   -1.5629   -0.7405   -0.0001 N   0  0  0  0  0  0  0  0  0  0  0  0
   -2.6652   -0.2119   -0.6937 C   0  0  0  0  0  0  0  0  0  0  0  0
   -3.6736   -1.1986   -1.2407 C   0  0  0  0  0  0  0  0  0  0  0  0
   -2.8422    1.0003   -0.8724 O   0  0  0  0  0  0  0  0  0  0  0  0
    2.9952   -0.5615    3.4784 H   0  0  0  0  0  0  0  0  0  0  0  0
    3.5128   -1.2425    1.8357 H   0  0  0  0  0  0  0  0  0  0  0  0
    2.1867   -2.0412    2.8448 H   0  0  0  0  0  0  0  0  0  0  0  0
    1.8198    0.7666    1.9421 H   0  0  0  0  0  0  0  0  0  0  0  0
   -1.1108    1.8965    0.1143 H   0  0  0  0  0  0  0  0  0  0  0  0
    0.4426    1.8093    1.0527 H   0  0  0  0  0  0  0  0  0  0  0  0
   -1.5356   -1.8039    0.0798 H   0  0  0  0  0  0  0  0  0  0  0  0
   -4.6424   -0.7354   -1.4113 H   0  0  0  0  0  0  0  0  0  0  0  0
   -3.7769   -1.9809   -0.4495 H   0  0  0  0  0  0  0  0  0  0  0  0
   -3.2033   -1.6312   -2.1574 H   0  0  0  0  0  0  0  0  0  0  0  0
  1  2  1  0
  1 11  1  0
  1 12  1  0
  1 13  1  0
  2  3  1  0
  2 14  1  0
  3  4  2  0
  3  5  1  0
  5  6  2  3
  5  7  1  0
  6 15  1  0
  6 16  1  0
  7  8  1  0
  7 17  1  0
  8  9  1  0
  8 10  2  0
  9 18  1  0
  9 19  1  0
  9 20  1  0
M  END

> <RosettaParamsInstructions>
M  ROOT 7
M  POLY_N_BB 7
M  POLY_CA_BB 5
M  POLY_C_BB 3
M  POLY_O_BB 4
M  POLY_IGNORE 1 10 9 14 11 12 13 18 19 20
M  POLY_UPPER 2
M  POLY_LOWER 8
M  POLY_CHG 0
M  POLY_PROPERTIES PROTEIN POLYMER ALPHA_AA ALIPHATIC
M  END

$$$$
DHA_new
     RDKit          3D

 20 19  0  0  0  0  0  0  0  0999 V2000
    2.6412   -1.0764    2.6041 C   0  0  0  0  0  0  0  0  0  0  0  0
    1.7150   -0.2205    1.8363 N   0  0  0  0  0  0  0  0  0  0  0  0
    0.5475   -0.7903    1.3202 C   0  0  0  0  0  0  0  0  0  0  0  0
    0.3371   -2.0284    1.5383 O   0  0  0  0  0  0  0  0  0  0  0  0
   -0.4448   -0.0621    0.5494 C   0  0  0  0  0  0  0  0  0  0  0  0
   -0.2744    1.1970    0.3025 C   0  0  0  0  0  0  0  0  0  0  0  0
   -1.5747   -0.7708    0.0929 N   0  0  0  0  0  0  0  0  0  0  0  0
   -2.6093   -0.2256   -0.6522 C   0  0  0  0  0  0  0  0  0  0  0  0
   -3.7571   -1.1231   -1.0673 C   0  0  0  0  0  0  0  0  0  0  0  0
   -2.7376    0.9513   -1.0486 O   0  0  0  0  0  0  0  0  0  0  0  0
    2.7149   -2.0727    2.1195 H   0  0  0  0  0  0  0  0  0  0  0  0
    2.3026   -1.1991    3.6318 H   0  0  0  0  0  0  0  0  0  0  0  0
    3.6470   -0.6220    2.5297 H   0  0  0  0  0  0  0  0  0  0  0  0
    1.9543    0.7797    1.7000 H   0  0  0  0  0  0  0  0  0  0  0  0
   -0.9683    1.7940   -0.2606 H   0  0  0  0  0  0  0  0  0  0  0  0
    0.6369    1.7054    0.6878 H   0  0  0  0  0  0  0  0  0  0  0  0
   -1.6600   -1.8243    0.3325 H   0  0  0  0  0  0  0  0  0  0  0  0
   -4.7000   -0.5667   -1.0424 H   0  0  0  0  0  0  0  0  0  0  0  0
   -3.8049   -1.9603   -0.3623 H   0  0  0  0  0  0  0  0  0  0  0  0
   -3.5718   -1.5375   -2.0709 H   0  0  0  0  0  0  0  0  0  0  0  0
  1  2  1  0
  1 11  1  0
  1 12  1  0
  1 13  1  0
  2  3  1  0
  2 14  1  0
  3  4  2  0
  3  5  1  0
  5  6  2  3
  5  7  1  0
  6 15  1  0
  6 16  1  0
  7  8  1  0
  7 17  1  0
  8  9  1  0
  8 10  2  0
  9 18  1  0
  9 19  1  0
  9 20  1  0
M  END

> <RosettaParamsInstructions>
M  ROOT 7
M  POLY_N_BB 7
M  POLY_CA_BB 5
M  POLY_C_BB 3
M  POLY_O_BB 4
M  POLY_IGNORE 1 10 9 14 11 12 13 18 19 20
M  POLY_UPPER 2
M  POLY_LOWER 8
M  POLY_CHG 0
M  POLY_PROPERTIES PROTEIN POLYMER ALPHA_AA ALIPHATIC
M  END

$$$$
DHA_new
     RDKit          3D

 20 19  0  0  0  0  0  0  0  0999 V2000
    2.6366   -1.0769    2.5897 C   0  0  0  0  0  0  0  0  0  0  0  0
    1.6826   -0.2279    1.8505 N   0  0  0  0  0  0  0  0  0  0  0  0
    0.5343   -0.8050    1.3029 C   0  0  0  0  0  0  0  0  0  0  0  0
    0.3509   -2.0517    1.4624 O   0  0  0  0  0  0  0  0  0  0  0  0
   -0.4558   -0.0444    0.5615 C   0  0  0  0  0  0  0  0  0  0  0  0
   -0.2780    1.2340    0.3920 C   0  0  0  0  0  0  0  0  0  0  0  0
   -1.5731   -0.7264    0.0545 N   0  0  0  0  0  0  0  0  0  0  0  0
   -2.6575   -0.2536   -0.6803 C   0  0  0  0  0  0  0  0  0  0  0  0
   -3.7633   -1.1647   -1.1316 C   0  0  0  0  0  0  0  0  0  0  0  0
   -2.7711    0.9380   -1.0015 O   0  0  0  0  0  0  0  0  0  0  0  0
    3.6301   -0.8903    2.1373 H   0  0  0  0  0  0  0  0  0  0  0  0
    2.3860   -2.1339    2.4431 H   0  0  0  0  0  0  0  0  0  0  0  0
    2.6772   -0.7819    3.6519 H   0  0  0  0  0  0  0  0  0  0  0  0
    1.9751    0.7657    1.8088 H   0  0  0  0  0  0  0  0  0  0  0  0
   -0.9864    1.8296   -0.1495 H   0  0  0  0  0  0  0  0  0  0  0  0
    0.6191    1.7035    0.8159 H   0  0  0  0  0  0  0  0  0  0  0  0
   -1.6002   -1.7824    0.2646 H   0  0  0  0  0  0  0  0  0  0  0  0
   -4.6981   -0.6008   -1.3112 H   0  0  0  0  0  0  0  0  0  0  0  0
   -3.8919   -1.8936   -0.2824 H   0  0  0  0  0  0  0  0  0  0  0  0
   -3.4229   -1.6895   -2.0379 H   0  0  0  0  0  0  0  0  0  0  0  0
  1  2  1  0
  1 11  1  0
  1 12  1  0
  1 13  1  0
  2  3  1  0
  2 14  1  0
  3  4  2  0
  3  5  1  0
  5  6  2  3
  5  7  1  0
  6 15  1  0
  6 16  1  0
  7  8  1  0
  7 17  1  0
  8  9  1  0
  8 10  2  0
  9 18  1  0
  9 19  1  0
  9 20  1  0
M  END

> <RosettaParamsInstructions>
M  ROOT 7
M  POLY_N_BB 7
M  POLY_CA_BB 5
M  POLY_C_BB 3
M  POLY_O_BB 4
M  POLY_IGNORE 1 10 9 14 11 12 13 18 19 20
M  POLY_UPPER 2
M  POLY_LOWER 8
M  POLY_CHG 0
M  POLY_PROPERTIES PROTEIN POLYMER ALPHA_AA ALIPHATIC
M  END

$$$$
DHA_new
     RDKit          3D

 20 19  0  0  0  0  0  0  0  0999 V2000
    2.6667   -1.0859    2.5731 C   0  0  0  0  0  0  0  0  0  0  0  0
    1.7090   -0.2321    1.8725 N   0  0  0  0  0  0  0  0  0  0  0  0
    0.5614   -0.8036    1.2994 C   0  0  0  0  0  0  0  0  0  0  0  0
    0.3789   -2.0605    1.4036 O   0  0  0  0  0  0  0  0  0  0  0  0
   -0.4757   -0.0365    0.5664 C   0  0  0  0  0  0  0  0  0  0  0  0
   -0.3509    1.2583    0.4231 C   0  0  0  0  0  0  0  0  0  0  0  0
   -1.5689   -0.7464    0.0463 N   0  0  0  0  0  0  0  0  0  0  0  0
   -2.6331   -0.2009   -0.6674 C   0  0  0  0  0  0  0  0  0  0  0  0
   -3.7115   -1.1664   -1.1349 C   0  0  0  0  0  0  0  0  0  0  0  0
   -2.8161    0.9975   -0.9760 O   0  0  0  0  0  0  0  0  0  0  0  0
    2.9157   -1.9462    1.9290 H   0  0  0  0  0  0  0  0  0  0  0  0
    3.5726   -0.5233    2.8235 H   0  0  0  0  0  0  0  0  0  0  0  0
    2.1567   -1.4825    3.4949 H   0  0  0  0  0  0  0  0  0  0  0  0
    1.9053    0.7824    1.8176 H   0  0  0  0  0  0  0  0  0  0  0  0
   -1.0568    1.8500   -0.0878 H   0  0  0  0  0  0  0  0  0  0  0  0
    0.5063    1.7723    0.8372 H   0  0  0  0  0  0  0  0  0  0  0  0
   -1.5727   -1.7902    0.2204 H   0  0  0  0  0  0  0  0  0  0  0  0
   -3.8050   -1.9593   -0.3429 H   0  0  0  0  0  0  0  0  0  0  0  0
   -3.3438   -1.6574   -2.0581 H   0  0  0  0  0  0  0  0  0  0  0  0
   -4.6446   -0.6216   -1.2989 H   0  0  0  0  0  0  0  0  0  0  0  0
  1  2  1  0
  1 11  1  0
  1 12  1  0
  1 13  1  0
  2  3  1  0
  2 14  1  0
  3  4  2  0
  3  5  1  0
  5  6  2  3
  5  7  1  0
  6 15  1  0
  6 16  1  0
  7  8  1  0
  7 17  1  0
  8  9  1  0
  8 10  2  0
  9 18  1  0
  9 19  1  0
  9 20  1  0
M  END

> <RosettaParamsInstructions>
M  ROOT 7
M  POLY_N_BB 7
M  POLY_CA_BB 5
M  POLY_C_BB 3
M  POLY_O_BB 4
M  POLY_IGNORE 1 10 9 14 11 12 13 18 19 20
M  POLY_UPPER 2
M  POLY_LOWER 8
M  POLY_CHG 0
M  POLY_PROPERTIES PROTEIN POLYMER ALPHA_AA ALIPHATIC
M  END

$$$$
DHA_new
     RDKit          3D

 20 19  0  0  0  0  0  0  0  0999 V2000
    2.6483   -1.0684    2.5962 C   0  0  0  0  0  0  0  0  0  0  0  0
    1.7064   -0.2122    1.8725 N   0  0  0  0  0  0  0  0  0  0  0  0
    0.5613   -0.8056    1.3224 C   0  0  0  0  0  0  0  0  0  0  0  0
    0.3708   -2.0428    1.4605 O   0  0  0  0  0  0  0  0  0  0  0  0
   -0.4807   -0.0738    0.5653 C   0  0  0  0  0  0  0  0  0  0  0  0
   -0.3194    1.2025    0.4022 C   0  0  0  0  0  0  0  0  0  0  0  0
   -1.5949   -0.7592    0.0519 N   0  0  0  0  0  0  0  0  0  0  0  0
   -2.6507   -0.2040   -0.6776 C   0  0  0  0  0  0  0  0  0  0  0  0
   -3.7417   -1.1623   -1.1224 C   0  0  0  0  0  0  0  0  0  0  0  0
   -2.7979    1.0008   -1.0067 O   0  0  0  0  0  0  0  0  0  0  0  0
    3.6724   -0.7700    2.2297 H   0  0  0  0  0  0  0  0  0  0  0  0
    2.4912   -2.1195    2.2909 H   0  0  0  0  0  0  0  0  0  0  0  0
    2.6036   -0.9302    3.6772 H   0  0  0  0  0  0  0  0  0  0  0  0
    1.9774    0.7938    1.8285 H   0  0  0  0  0  0  0  0  0  0  0  0
   -1.0081    1.8076   -0.1227 H   0  0  0  0  0  0  0  0  0  0  0  0
    0.5638    1.6950    0.8194 H   0  0  0  0  0  0  0  0  0  0  0  0
   -1.6377   -1.8178    0.2404 H   0  0  0  0  0  0  0  0  0  0  0  0
   -3.2815   -2.0588   -1.6132 H   0  0  0  0  0  0  0  0  0  0  0  0
   -4.3991   -0.6949   -1.8608 H   0  0  0  0  0  0  0  0  0  0  0  0
   -4.2901   -1.4325   -0.2127 H   0  0  0  0  0  0  0  0  0  0  0  0
  1  2  1  0
  1 11  1  0
  1 12  1  0
  1 13  1  0
  2  3  1  0
  2 14  1  0
  3  4  2  0
  3  5  1  0
  5  6  2  3
  5  7  1  0
  6 15  1  0
  6 16  1  0
  7  8  1  0
  7 17  1  0
  8  9  1  0
  8 10  2  0
  9 18  1  0
  9 19  1  0
  9 20  1  0
M  END

> <RosettaParamsInstructions>
M  ROOT 7
M  POLY_N_BB 7
M  POLY_CA_BB 5
M  POLY_C_BB 3
M  POLY_O_BB 4
M  POLY_IGNORE 1 10 9 14 11 12 13 18 19 20
M  POLY_UPPER 2
M  POLY_LOWER 8
M  POLY_CHG 0
M  POLY_PROPERTIES PROTEIN POLYMER ALPHA_AA ALIPHATIC
M  END

$$$$
DHA_new
     RDKit          3D

 20 19  0  0  0  0  0  0  0  0999 V2000
    2.7116   -1.0879    2.4977 C   0  0  0  0  0  0  0  0  0  0  0  0
    1.7001   -0.2362    1.8538 N   0  0  0  0  0  0  0  0  0  0  0  0
    0.5753   -0.8322    1.2568 C   0  0  0  0  0  0  0  0  0  0  0  0
    0.4569   -2.0752    1.2850 O   0  0  0  0  0  0  0  0  0  0  0  0
   -0.4728   -0.0345    0.5961 C   0  0  0  0  0  0  0  0  0  0  0  0
   -0.3763    1.2861    0.5494 C   0  0  0  0  0  0  0  0  0  0  0  0
   -1.5511   -0.7448    0.0343 N   0  0  0  0  0  0  0  0  0  0  0  0
   -2.6532   -0.2305   -0.6356 C   0  0  0  0  0  0  0  0  0  0  0  0
   -3.7082   -1.1808   -1.1656 C   0  0  0  0  0  0  0  0  0  0  0  0
   -2.8660    0.9713   -0.8500 O   0  0  0  0  0  0  0  0  0  0  0  0
    2.7405   -0.7701    3.5592 H   0  0  0  0  0  0  0  0  0  0  0  0
    2.3722   -2.1398    2.4905 H   0  0  0  0  0  0  0  0  0  0  0  0
    3.6781   -1.0284    1.9848 H   0  0  0  0  0  0  0  0  0  0  0  0
    1.8407    0.7860    1.8553 H   0  0  0  0  0  0  0  0  0  0  0  0
   -1.1276    1.8591    0.0757 H   0  0  0  0  0  0  0  0  0  0  0  0
    0.4601    1.8333    0.9854 H   0  0  0  0  0  0  0  0  0  0  0  0
   -1.4997   -1.8040    0.1454 H   0  0  0  0  0  0  0  0  0  0  0  0
   -3.7652   -2.0691   -0.4961 H   0  0  0  0  0  0  0  0  0  0  0  0
   -4.6993   -0.6865   -1.1049 H   0  0  0  0  0  0  0  0  0  0  0  0
   -3.4224   -1.4680   -2.1764 H   0  0  0  0  0  0  0  0  0  0  0  0
  1  2  1  0
  1 11  1  0
  1 12  1  0
  1 13  1  0
  2  3  1  0
  2 14  1  0
  3  4  2  0
  3  5  1  0
  5  6  2  3
  5  7  1  0
  6 15  1  0
  6 16  1  0
  7  8  1  0
  7 17  1  0
  8  9  1  0
  8 10  2  0
  9 18  1  0
  9 19  1  0
  9 20  1  0
M  END

> <RosettaParamsInstructions>
M  ROOT 7
M  POLY_N_BB 7
M  POLY_CA_BB 5
M  POLY_C_BB 3
M  POLY_O_BB 4
M  POLY_IGNORE 1 10 9 14 11 12 13 18 19 20
M  POLY_UPPER 2
M  POLY_LOWER 8
M  POLY_CHG 0
M  POLY_PROPERTIES PROTEIN POLYMER ALPHA_AA ALIPHATIC
M  END

$$$$
DHA_new
     RDKit          3D

 20 19  0  0  0  0  0  0  0  0999 V2000
    2.6710   -1.0671    2.5974 C   0  0  0  0  0  0  0  0  0  0  0  0
    1.6928   -0.2601    1.8547 N   0  0  0  0  0  0  0  0  0  0  0  0
    0.5303   -0.8262    1.3049 C   0  0  0  0  0  0  0  0  0  0  0  0
    0.2993   -2.0714    1.4429 O   0  0  0  0  0  0  0  0  0  0  0  0
   -0.4604   -0.0392    0.5591 C   0  0  0  0  0  0  0  0  0  0  0  0
   -0.3018    1.2469    0.3701 C   0  0  0  0  0  0  0  0  0  0  0  0
   -1.5938   -0.7153    0.0507 N   0  0  0  0  0  0  0  0  0  0  0  0
   -2.6624   -0.1814   -0.6845 C   0  0  0  0  0  0  0  0  0  0  0  0
   -3.7562   -1.1481   -1.1066 C   0  0  0  0  0  0  0  0  0  0  0  0
   -2.8028    0.9983   -1.0232 O   0  0  0  0  0  0  0  0  0  0  0  0
    2.3157   -2.1251    2.6671 H   0  0  0  0  0  0  0  0  0  0  0  0
    2.8135   -0.6605    3.6177 H   0  0  0  0  0  0  0  0  0  0  0  0
    3.6352   -1.1205    2.0338 H   0  0  0  0  0  0  0  0  0  0  0  0
    1.9278    0.7372    1.7735 H   0  0  0  0  0  0  0  0  0  0  0  0
   -1.0028    1.8303   -0.1634 H   0  0  0  0  0  0  0  0  0  0  0  0
    0.5664    1.7371    0.7659 H   0  0  0  0  0  0  0  0  0  0  0  0
   -1.6233   -1.7625    0.2623 H   0  0  0  0  0  0  0  0  0  0  0  0
   -4.2226   -1.5335   -0.1899 H   0  0  0  0  0  0  0  0  0  0  0  0
   -3.1952   -2.0031   -1.5667 H   0  0  0  0  0  0  0  0  0  0  0  0
   -4.4372   -0.6881   -1.8248 H   0  0  0  0  0  0  0  0  0  0  0  0
  1  2  1  0
  1 11  1  0
  1 12  1  0
  1 13  1  0
  2  3  1  0
  2 14  1  0
  3  4  2  0
  3  5  1  0
  5  6  2  3
  5  7  1  0
  6 15  1  0
  6 16  1  0
  7  8  1  0
  7 17  1  0
  8  9  1  0
  8 10  2  0
  9 18  1  0
  9 19  1  0
  9 20  1  0
M  END

> <RosettaParamsInstructions>
M  ROOT 7
M  POLY_N_BB 7
M  POLY_CA_BB 5
M  POLY_C_BB 3
M  POLY_O_BB 4
M  POLY_IGNORE 1 10 9 14 11 12 13 18 19 20
M  POLY_UPPER 2
M  POLY_LOWER 8
M  POLY_CHG 0
M  POLY_PROPERTIES PROTEIN POLYMER ALPHA_AA ALIPHATIC
M  END

$$$$
DHA_new
     RDKit          3D

 20 19  0  0  0  0  0  0  0  0999 V2000
    2.6893   -1.0405    2.5868 C   0  0  0  0  0  0  0  0  0  0  0  0
    1.6838   -0.2439    1.8651 N   0  0  0  0  0  0  0  0  0  0  0  0
    0.5611   -0.8281    1.3095 C   0  0  0  0  0  0  0  0  0  0  0  0
    0.4063   -2.0832    1.4324 O   0  0  0  0  0  0  0  0  0  0  0  0
   -0.4786   -0.0738    0.5751 C   0  0  0  0  0  0  0  0  0  0  0  0
   -0.2987    1.2210    0.4601 C   0  0  0  0  0  0  0  0  0  0  0  0
   -1.5774   -0.7903    0.0559 N   0  0  0  0  0  0  0  0  0  0  0  0
   -2.6436   -0.2579   -0.6563 C   0  0  0  0  0  0  0  0  0  0  0  0
   -3.7689   -1.1439   -1.1622 C   0  0  0  0  0  0  0  0  0  0  0  0
   -2.7814    0.9434   -0.9407 O   0  0  0  0  0  0  0  0  0  0  0  0
    3.4823   -1.2800    1.8767 H   0  0  0  0  0  0  0  0  0  0  0  0
    3.0762   -0.4575    3.4405 H   0  0  0  0  0  0  0  0  0  0  0  0
    2.2159   -1.9974    2.9093 H   0  0  0  0  0  0  0  0  0  0  0  0
    1.8978    0.7623    1.8190 H   0  0  0  0  0  0  0  0  0  0  0  0
    0.5593    1.7436    0.8718 H   0  0  0  0  0  0  0  0  0  0  0  0
   -1.0030    1.8390   -0.0556 H   0  0  0  0  0  0  0  0  0  0  0  0
   -1.5914   -1.8446    0.2268 H   0  0  0  0  0  0  0  0  0  0  0  0
   -4.7356   -0.6524   -1.0278 H   0  0  0  0  0  0  0  0  0  0  0  0
   -3.7849   -2.0986   -0.6235 H   0  0  0  0  0  0  0  0  0  0  0  0
   -3.5147   -1.3693   -2.2219 H   0  0  0  0  0  0  0  0  0  0  0  0
  1  2  1  0
  1 11  1  0
  1 12  1  0
  1 13  1  0
  2  3  1  0
  2 14  1  0
  3  4  2  0
  3  5  1  0
  5  6  2  3
  5  7  1  0
  6 15  1  0
  6 16  1  0
  7  8  1  0
  7 17  1  0
  8  9  1  0
  8 10  2  0
  9 18  1  0
  9 19  1  0
  9 20  1  0
M  END

> <RosettaParamsInstructions>
M  ROOT 7
M  POLY_N_BB 7
M  POLY_CA_BB 5
M  POLY_C_BB 3
M  POLY_O_BB 4
M  POLY_IGNORE 1 10 9 14 11 12 13 18 19 20
M  POLY_UPPER 2
M  POLY_LOWER 8
M  POLY_CHG 0
M  POLY_PROPERTIES PROTEIN POLYMER ALPHA_AA ALIPHATIC
M  END

$$$$
DHA_new
     RDKit          3D

 20 19  0  0  0  0  0  0  0  0999 V2000
    2.7030   -1.0442    2.5931 C   0  0  0  0  0  0  0  0  0  0  0  0
    1.7001   -0.2224    1.8822 N   0  0  0  0  0  0  0  0  0  0  0  0
    0.5782   -0.8078    1.3152 C   0  0  0  0  0  0  0  0  0  0  0  0
    0.4217   -2.0758    1.4160 O   0  0  0  0  0  0  0  0  0  0  0  0
   -0.4587   -0.0816    0.5990 C   0  0  0  0  0  0  0  0  0  0  0  0
   -0.3564    1.2151    0.4622 C   0  0  0  0  0  0  0  0  0  0  0  0
   -1.5694   -0.7678    0.0538 N   0  0  0  0  0  0  0  0  0  0  0  0
   -2.6584   -0.2496   -0.6614 C   0  0  0  0  0  0  0  0  0  0  0  0
   -3.7602   -1.1391   -1.1706 C   0  0  0  0  0  0  0  0  0  0  0  0
   -2.8191    0.9615   -0.9389 O   0  0  0  0  0  0  0  0  0  0  0  0
    3.6968   -0.5790    2.5634 H   0  0  0  0  0  0  0  0  0  0  0  0
    2.7411   -1.9945    2.0186 H   0  0  0  0  0  0  0  0  0  0  0  0
    2.3406   -1.2553    3.6088 H   0  0  0  0  0  0  0  0  0  0  0  0
    1.9156    0.7753    1.8569 H   0  0  0  0  0  0  0  0  0  0  0  0
    0.5235    1.7117    0.9012 H   0  0  0  0  0  0  0  0  0  0  0  0
   -1.0510    1.8721   -0.0435 H   0  0  0  0  0  0  0  0  0  0  0  0
   -1.5734   -1.8213    0.2112 H   0  0  0  0  0  0  0  0  0  0  0  0
   -3.3385   -2.1610   -1.2382 H   0  0  0  0  0  0  0  0  0  0  0  0
   -4.6138   -1.1595   -0.4927 H   0  0  0  0  0  0  0  0  0  0  0  0
   -4.0282   -0.8291   -2.1953 H   0  0  0  0  0  0  0  0  0  0  0  0
  1  2  1  0
  1 11  1  0
  1 12  1  0
  1 13  1  0
  2  3  1  0
  2 14  1  0
  3  4  2  0
  3  5  1  0
  5  6  2  3
  5  7  1  0
  6 15  1  0
  6 16  1  0
  7  8  1  0
  7 17  1  0
  8  9  1  0
  8 10  2  0
  9 18  1  0
  9 19  1  0
  9 20  1  0
M  END

> <RosettaParamsInstructions>
M  ROOT 7
M  POLY_N_BB 7
M  POLY_CA_BB 5
M  POLY_C_BB 3
M  POLY_O_BB 4
M  POLY_IGNORE 1 10 9 14 11 12 13 18 19 20
M  POLY_UPPER 2
M  POLY_LOWER 8
M  POLY_CHG 0
M  POLY_PROPERTIES PROTEIN POLYMER ALPHA_AA ALIPHATIC
M  END

$$$$
DHA_new
     RDKit          3D

 20 19  0  0  0  0  0  0  0  0999 V2000
    2.6994   -1.0709    2.5652 C   0  0  0  0  0  0  0  0  0  0  0  0
    1.6593   -0.2583    1.9046 N   0  0  0  0  0  0  0  0  0  0  0  0
    0.5667   -0.8507    1.2732 C   0  0  0  0  0  0  0  0  0  0  0  0
    0.4845   -2.1355    1.2794 O   0  0  0  0  0  0  0  0  0  0  0  0
   -0.4728   -0.0607    0.6140 C   0  0  0  0  0  0  0  0  0  0  0  0
   -0.3750    1.2396    0.6165 C   0  0  0  0  0  0  0  0  0  0  0  0
   -1.5502   -0.7665   -0.0033 N   0  0  0  0  0  0  0  0  0  0  0  0
   -2.6427   -0.2663   -0.6818 C   0  0  0  0  0  0  0  0  0  0  0  0
   -3.6933   -1.1704   -1.2743 C   0  0  0  0  0  0  0  0  0  0  0  0
   -2.8464    0.9486   -0.8568 O   0  0  0  0  0  0  0  0  0  0  0  0
    2.6342   -0.8204    3.6296 H   0  0  0  0  0  0  0  0  0  0  0  0
    3.6578   -0.6844    2.1824 H   0  0  0  0  0  0  0  0  0  0  0  0
    2.5191   -2.1319    2.3742 H   0  0  0  0  0  0  0  0  0  0  0  0
    1.8116    0.7512    1.9525 H   0  0  0  0  0  0  0  0  0  0  0  0
    0.4442    1.7339    1.0878 H   0  0  0  0  0  0  0  0  0  0  0  0
   -1.1027    1.8773    0.1514 H   0  0  0  0  0  0  0  0  0  0  0  0
   -1.4895   -1.8357    0.0795 H   0  0  0  0  0  0  0  0  0  0  0  0
   -3.3338   -2.2216   -1.2983 H   0  0  0  0  0  0  0  0  0  0  0  0
   -4.5878   -1.1598   -0.6124 H   0  0  0  0  0  0  0  0  0  0  0  0
   -3.9891   -0.7697   -2.2427 H   0  0  0  0  0  0  0  0  0  0  0  0
  1  2  1  0
  1 11  1  0
  1 12  1  0
  1 13  1  0
  2  3  1  0
  2 14  1  0
  3  4  2  0
  3  5  1  0
  5  6  2  3
  5  7  1  0
  6 15  1  0
  6 16  1  0
  7  8  1  0
  7 17  1  0
  8  9  1  0
  8 10  2  0
  9 18  1  0
  9 19  1  0
  9 20  1  0
M  END

> <RosettaParamsInstructions>
M  ROOT 7
M  POLY_N_BB 7
M  POLY_CA_BB 5
M  POLY_C_BB 3
M  POLY_O_BB 4
M  POLY_IGNORE 1 10 9 14 11 12 13 18 19 20
M  POLY_UPPER 2
M  POLY_LOWER 8
M  POLY_CHG 0
M  POLY_PROPERTIES PROTEIN POLYMER ALPHA_AA ALIPHATIC
M  END

$$$$
DHA_new
     RDKit          3D

 20 19  0  0  0  0  0  0  0  0999 V2000
    2.6602   -1.0821    2.5544 C   0  0  0  0  0  0  0  0  0  0  0  0
    1.6958   -0.2349    1.8531 N   0  0  0  0  0  0  0  0  0  0  0  0
    0.5690   -0.8351    1.2919 C   0  0  0  0  0  0  0  0  0  0  0  0
    0.4076   -2.0906    1.4014 O   0  0  0  0  0  0  0  0  0  0  0  0
   -0.4657   -0.0811    0.5646 C   0  0  0  0  0  0  0  0  0  0  0  0
   -0.3357    1.2093    0.4311 C   0  0  0  0  0  0  0  0  0  0  0  0
   -1.5637   -0.7788    0.0361 N   0  0  0  0  0  0  0  0  0  0  0  0
   -2.6215   -0.2313   -0.6710 C   0  0  0  0  0  0  0  0  0  0  0  0
   -3.7144   -1.1580   -1.1593 C   0  0  0  0  0  0  0  0  0  0  0  0
   -2.7821    0.9718   -0.9602 O   0  0  0  0  0  0  0  0  0  0  0  0
    2.1291   -1.9678    2.9350 H   0  0  0  0  0  0  0  0  0  0  0  0
    3.5121   -1.3002    1.9062 H   0  0  0  0  0  0  0  0  0  0  0  0
    2.9713   -0.5044    3.4716 H   0  0  0  0  0  0  0  0  0  0  0  0
    1.9106    0.7680    1.8155 H   0  0  0  0  0  0  0  0  0  0  0  0
   -1.0211    1.8664   -0.0762 H   0  0  0  0  0  0  0  0  0  0  0  0
    0.5286    1.7304    0.8517 H   0  0  0  0  0  0  0  0  0  0  0  0
   -1.5631   -1.8295    0.2071 H   0  0  0  0  0  0  0  0  0  0  0  0
   -4.4532   -1.2005   -0.3362 H   0  0  0  0  0  0  0  0  0  0  0  0
   -3.2606   -2.1493   -1.3362 H   0  0  0  0  0  0  0  0  0  0  0  0
   -4.2095   -0.7545   -2.0397 H   0  0  0  0  0  0  0  0  0  0  0  0
  1  2  1  0
  1 11  1  0
  1 12  1  0
  1 13  1  0
  2  3  1  0
  2 14  1  0
  3  4  2  0
  3  5  1  0
  5  6  2  3
  5  7  1  0
  6 15  1  0
  6 16  1  0
  7  8  1  0
  7 17  1  0
  8  9  1  0
  8 10  2  0
  9 18  1  0
  9 19  1  0
  9 20  1  0
M  END

> <RosettaParamsInstructions>
M  ROOT 7
M  POLY_N_BB 7
M  POLY_CA_BB 5
M  POLY_C_BB 3
M  POLY_O_BB 4
M  POLY_IGNORE 1 10 9 14 11 12 13 18 19 20
M  POLY_UPPER 2
M  POLY_LOWER 8
M  POLY_CHG 0
M  POLY_PROPERTIES PROTEIN POLYMER ALPHA_AA ALIPHATIC
M  END

$$$$
DHA_new
     RDKit          3D

 20 19  0  0  0  0  0  0  0  0999 V2000
    2.6091   -1.0316    2.6582 C   0  0  0  0  0  0  0  0  0  0  0  0
    1.6735   -0.2163    1.8581 N   0  0  0  0  0  0  0  0  0  0  0  0
    0.5265   -0.8284    1.3421 C   0  0  0  0  0  0  0  0  0  0  0  0
    0.3155   -2.0416    1.5645 O   0  0  0  0  0  0  0  0  0  0  0  0
   -0.4412   -0.0596    0.5359 C   0  0  0  0  0  0  0  0  0  0  0  0
   -0.2027    1.2119    0.3133 C   0  0  0  0  0  0  0  0  0  0  0  0
   -1.5723   -0.7707    0.0581 N   0  0  0  0  0  0  0  0  0  0  0  0
   -2.6188   -0.2599   -0.7210 C   0  0  0  0  0  0  0  0  0  0  0  0
   -3.7607   -1.1681   -1.1485 C   0  0  0  0  0  0  0  0  0  0  0  0
   -2.6731    0.9214   -1.0945 O   0  0  0  0  0  0  0  0  0  0  0  0
    2.0794   -1.9251    3.0240 H   0  0  0  0  0  0  0  0  0  0  0  0
    2.9686   -0.4261    3.5124 H   0  0  0  0  0  0  0  0  0  0  0  0
    3.4553   -1.3698    2.0270 H   0  0  0  0  0  0  0  0  0  0  0  0
    1.9653    0.7647    1.7514 H   0  0  0  0  0  0  0  0  0  0  0  0
   -0.8745    1.8070   -0.2640 H   0  0  0  0  0  0  0  0  0  0  0  0
    0.6704    1.6815    0.7050 H   0  0  0  0  0  0  0  0  0  0  0  0
   -1.6260   -1.8048    0.3240 H   0  0  0  0  0  0  0  0  0  0  0  0
   -3.7207   -1.3660   -2.2282 H   0  0  0  0  0  0  0  0  0  0  0  0
   -3.6860   -2.1171   -0.5580 H   0  0  0  0  0  0  0  0  0  0  0  0
   -4.6941   -0.6536   -0.9186 H   0  0  0  0  0  0  0  0  0  0  0  0
  1  2  1  0
  1 11  1  0
  1 12  1  0
  1 13  1  0
  2  3  1  0
  2 14  1  0
  3  4  2  0
  3  5  1  0
  5  6  2  3
  5  7  1  0
  6 15  1  0
  6 16  1  0
  7  8  1  0
  7 17  1  0
  8  9  1  0
  8 10  2  0
  9 18  1  0
  9 19  1  0
  9 20  1  0
M  END

> <RosettaParamsInstructions>
M  ROOT 7
M  POLY_N_BB 7
M  POLY_CA_BB 5
M  POLY_C_BB 3
M  POLY_O_BB 4
M  POLY_IGNORE 1 10 9 14 11 12 13 18 19 20
M  POLY_UPPER 2
M  POLY_LOWER 8
M  POLY_CHG 0
M  POLY_PROPERTIES PROTEIN POLYMER ALPHA_AA ALIPHATIC
M  END

$$$$
DHA_new
     RDKit          3D

 20 19  0  0  0  0  0  0  0  0999 V2000
    2.7245   -1.0507    2.5031 C   0  0  0  0  0  0  0  0  0  0  0  0
    1.7075   -0.2312    1.8422 N   0  0  0  0  0  0  0  0  0  0  0  0
    0.6040   -0.8571    1.2802 C   0  0  0  0  0  0  0  0  0  0  0  0
    0.4732   -2.0999    1.3332 O   0  0  0  0  0  0  0  0  0  0  0  0
   -0.4658   -0.1012    0.5959 C   0  0  0  0  0  0  0  0  0  0  0  0
   -0.3685    1.1906    0.5188 C   0  0  0  0  0  0  0  0  0  0  0  0
   -1.5597   -0.8028    0.0471 N   0  0  0  0  0  0  0  0  0  0  0  0
   -2.6369   -0.2572   -0.6200 C   0  0  0  0  0  0  0  0  0  0  0  0
   -3.7558   -1.1107   -1.1674 C   0  0  0  0  0  0  0  0  0  0  0  0
   -2.7962    0.9575   -0.8347 O   0  0  0  0  0  0  0  0  0  0  0  0
    2.3188   -2.0529    2.7798 H   0  0  0  0  0  0  0  0  0  0  0  0
    2.9530   -0.5453    3.4651 H   0  0  0  0  0  0  0  0  0  0  0  0
    3.5893   -1.1111    1.8273 H   0  0  0  0  0  0  0  0  0  0  0  0
    1.8863    0.7702    1.8411 H   0  0  0  0  0  0  0  0  0  0  0  0
    0.4939    1.6974    0.9562 H   0  0  0  0  0  0  0  0  0  0  0  0
   -1.0971    1.7988    0.0432 H   0  0  0  0  0  0  0  0  0  0  0  0
   -1.5474   -1.8873    0.1650 H   0  0  0  0  0  0  0  0  0  0  0  0
   -4.5830   -1.0196   -0.4500 H   0  0  0  0  0  0  0  0  0  0  0  0
   -4.0803   -0.7721   -2.1551 H   0  0  0  0  0  0  0  0  0  0  0  0
   -3.4664   -2.1678   -1.2301 H   0  0  0  0  0  0  0  0  0  0  0  0
  1  2  1  0
  1 11  1  0
  1 12  1  0
  1 13  1  0
  2  3  1  0
  2 14  1  0
  3  4  2  0
  3  5  1  0
  5  6  2  3
  5  7  1  0
  6 15  1  0
  6 16  1  0
  7  8  1  0
  7 17  1  0
  8  9  1  0
  8 10  2  0
  9 18  1  0
  9 19  1  0
  9 20  1  0
M  END

> <RosettaParamsInstructions>
M  ROOT 7
M  POLY_N_BB 7
M  POLY_CA_BB 5
M  POLY_C_BB 3
M  POLY_O_BB 4
M  POLY_IGNORE 1 10 9 14 11 12 13 18 19 20
M  POLY_UPPER 2
M  POLY_LOWER 8
M  POLY_CHG 0
M  POLY_PROPERTIES PROTEIN POLYMER ALPHA_AA ALIPHATIC
M  END

$$$$
DHA_new
     RDKit          3D

 20 19  0  0  0  0  0  0  0  0999 V2000
    2.6684   -1.0430    2.5771 C   0  0  0  0  0  0  0  0  0  0  0  0
    1.6575   -0.2085    1.9154 N   0  0  0  0  0  0  0  0  0  0  0  0
    0.5794   -0.7982    1.2995 C   0  0  0  0  0  0  0  0  0  0  0  0
    0.4864   -2.0725    1.3206 O   0  0  0  0  0  0  0  0  0  0  0  0
   -0.4635   -0.0531    0.6240 C   0  0  0  0  0  0  0  0  0  0  0  0
   -0.3839    1.2618    0.5924 C   0  0  0  0  0  0  0  0  0  0  0  0
   -1.5352   -0.7709    0.0197 N   0  0  0  0  0  0  0  0  0  0  0  0
   -2.6362   -0.2864   -0.6750 C   0  0  0  0  0  0  0  0  0  0  0  0
   -3.6932   -1.1692   -1.2604 C   0  0  0  0  0  0  0  0  0  0  0  0
   -2.8397    0.9341   -0.8720 O   0  0  0  0  0  0  0  0  0  0  0  0
    2.3976   -1.2799    3.6099 H   0  0  0  0  0  0  0  0  0  0  0  0
    3.6508   -0.5864    2.4356 H   0  0  0  0  0  0  0  0  0  0  0  0
    2.6980   -2.0216    2.0211 H   0  0  0  0  0  0  0  0  0  0  0  0
    1.8204    0.7996    1.9528 H   0  0  0  0  0  0  0  0  0  0  0  0
    0.4523    1.7456    1.0685 H   0  0  0  0  0  0  0  0  0  0  0  0
   -1.1174    1.9051    0.1101 H   0  0  0  0  0  0  0  0  0  0  0  0
   -1.4663   -1.8383    0.1260 H   0  0  0  0  0  0  0  0  0  0  0  0
   -3.3456   -2.2201   -1.1980 H   0  0  0  0  0  0  0  0  0  0  0  0
   -4.5904   -1.0351   -0.6386 H   0  0  0  0  0  0  0  0  0  0  0  0
   -3.9460   -0.9153   -2.2877 H   0  0  0  0  0  0  0  0  0  0  0  0
  1  2  1  0
  1 11  1  0
  1 12  1  0
  1 13  1  0
  2  3  1  0
  2 14  1  0
  3  4  2  0
  3  5  1  0
  5  6  2  3
  5  7  1  0
  6 15  1  0
  6 16  1  0
  7  8  1  0
  7 17  1  0
  8  9  1  0
  8 10  2  0
  9 18  1  0
  9 19  1  0
  9 20  1  0
M  END

> <RosettaParamsInstructions>
M  ROOT 7
M  POLY_N_BB 7
M  POLY_CA_BB 5
M  POLY_C_BB 3
M  POLY_O_BB 4
M  POLY_IGNORE 1 10 9 14 11 12 13 18 19 20
M  POLY_UPPER 2
M  POLY_LOWER 8
M  POLY_CHG 0
M  POLY_PROPERTIES PROTEIN POLYMER ALPHA_AA ALIPHATIC
M  END

$$$$
DHA_new
     RDKit          3D

 20 19  0  0  0  0  0  0  0  0999 V2000
    2.6644   -1.0357    2.5911 C   0  0  0  0  0  0  0  0  0  0  0  0
    1.6720   -0.2115    1.8628 N   0  0  0  0  0  0  0  0  0  0  0  0
    0.5524   -0.8360    1.3071 C   0  0  0  0  0  0  0  0  0  0  0  0
    0.4015   -2.0770    1.4299 O   0  0  0  0  0  0  0  0  0  0  0  0
   -0.4838   -0.0915    0.5665 C   0  0  0  0  0  0  0  0  0  0  0  0
   -0.3153    1.2020    0.4450 C   0  0  0  0  0  0  0  0  0  0  0  0
   -1.5848   -0.8093    0.0377 N   0  0  0  0  0  0  0  0  0  0  0  0
   -2.6279   -0.2348   -0.6779 C   0  0  0  0  0  0  0  0  0  0  0  0
   -3.7269   -1.1539   -1.1711 C   0  0  0  0  0  0  0  0  0  0  0  0
   -2.7549    0.9661   -0.9584 O   0  0  0  0  0  0  0  0  0  0  0  0
    2.5490   -0.9225    3.6783 H   0  0  0  0  0  0  0  0  0  0  0  0
    2.4808   -2.1220    2.3492 H   0  0  0  0  0  0  0  0  0  0  0  0
    3.6633   -0.7327    2.2200 H   0  0  0  0  0  0  0  0  0  0  0  0
    1.9256    0.7976    1.8404 H   0  0  0  0  0  0  0  0  0  0  0  0
   -0.9907    1.8886   -0.0721 H   0  0  0  0  0  0  0  0  0  0  0  0
    0.5603    1.7109    0.8762 H   0  0  0  0  0  0  0  0  0  0  0  0
   -1.6030   -1.8596    0.2065 H   0  0  0  0  0  0  0  0  0  0  0  0
   -4.0763   -0.8297   -2.1509 H   0  0  0  0  0  0  0  0  0  0  0  0
   -4.5365   -1.1125   -0.4186 H   0  0  0  0  0  0  0  0  0  0  0  0
   -3.3756   -2.1890   -1.2210 H   0  0  0  0  0  0  0  0  0  0  0  0
  1  2  1  0
  1 11  1  0
  1 12  1  0
  1 13  1  0
  2  3  1  0
  2 14  1  0
  3  4  2  0
  3  5  1  0
  5  6  2  3
  5  7  1  0
  6 15  1  0
  6 16  1  0
  7  8  1  0
  7 17  1  0
  8  9  1  0
  8 10  2  0
  9 18  1  0
  9 19  1  0
  9 20  1  0
M  END

> <RosettaParamsInstructions>
M  ROOT 7
M  POLY_N_BB 7
M  POLY_CA_BB 5
M  POLY_C_BB 3
M  POLY_O_BB 4
M  POLY_IGNORE 1 10 9 14 11 12 13 18 19 20
M  POLY_UPPER 2
M  POLY_LOWER 8
M  POLY_CHG 0
M  POLY_PROPERTIES PROTEIN POLYMER ALPHA_AA ALIPHATIC
M  END

$$$$
DHA_new
     RDKit          3D

 20 19  0  0  0  0  0  0  0  0999 V2000
    2.7377   -1.0865    2.4805 C   0  0  0  0  0  0  0  0  0  0  0  0
    1.6826   -0.2115    1.9069 N   0  0  0  0  0  0  0  0  0  0  0  0
    0.6075   -0.8229    1.2487 C   0  0  0  0  0  0  0  0  0  0  0  0
    0.5710   -2.0992    1.1647 O   0  0  0  0  0  0  0  0  0  0  0  0
   -0.5097   -0.0990    0.6316 C   0  0  0  0  0  0  0  0  0  0  0  0
   -0.4925    1.2160    0.7062 C   0  0  0  0  0  0  0  0  0  0  0  0
   -1.5482   -0.8102   -0.0102 N   0  0  0  0  0  0  0  0  0  0  0  0
   -2.6637   -0.2304   -0.6336 C   0  0  0  0  0  0  0  0  0  0  0  0
   -3.6958   -1.1551   -1.2821 C   0  0  0  0  0  0  0  0  0  0  0  0
   -2.9124    0.9873   -0.7190 O   0  0  0  0  0  0  0  0  0  0  0  0
    3.1821   -0.5288    3.3449 H   0  0  0  0  0  0  0  0  0  0  0  0
    3.5151   -1.2716    1.7111 H   0  0  0  0  0  0  0  0  0  0  0  0
    2.2228   -1.9916    2.8196 H   0  0  0  0  0  0  0  0  0  0  0  0
    1.7876    0.8139    2.0186 H   0  0  0  0  0  0  0  0  0  0  0  0
   -1.2386    1.8839    0.3032 H   0  0  0  0  0  0  0  0  0  0  0  0
    0.3301    1.7563    1.2134 H   0  0  0  0  0  0  0  0  0  0  0  0
   -1.4579   -1.8705   -0.0096 H   0  0  0  0  0  0  0  0  0  0  0  0
   -4.3877   -1.4289   -0.4590 H   0  0  0  0  0  0  0  0  0  0  0  0
   -4.1758   -0.6333   -2.1176 H   0  0  0  0  0  0  0  0  0  0  0  0
   -3.1607   -2.0702   -1.5775 H   0  0  0  0  0  0  0  0  0  0  0  0
  1  2  1  0
  1 11  1  0
  1 12  1  0
  1 13  1  0
  2  3  1  0
  2 14  1  0
  3  4  2  0
  3  5  1  0
  5  6  2  3
  5  7  1  0
  6 15  1  0
  6 16  1  0
  7  8  1  0
  7 17  1  0
  8  9  1  0
  8 10  2  0
  9 18  1  0
  9 19  1  0
  9 20  1  0
M  END

> <RosettaParamsInstructions>
M  ROOT 7
M  POLY_N_BB 7
M  POLY_CA_BB 5
M  POLY_C_BB 3
M  POLY_O_BB 4
M  POLY_IGNORE 1 10 9 14 11 12 13 18 19 20
M  POLY_UPPER 2
M  POLY_LOWER 8
M  POLY_CHG 0
M  POLY_PROPERTIES PROTEIN POLYMER ALPHA_AA ALIPHATIC
M  END

$$$$
DHA_new
     RDKit          3D

 20 19  0  0  0  0  0  0  0  0999 V2000
    2.7094   -1.0988    2.5385 C   0  0  0  0  0  0  0  0  0  0  0  0
    1.7544   -0.2452    1.8244 N   0  0  0  0  0  0  0  0  0  0  0  0
    0.5824   -0.8008    1.2885 C   0  0  0  0  0  0  0  0  0  0  0  0
    0.3974   -2.0474    1.4500 O   0  0  0  0  0  0  0  0  0  0  0  0
   -0.4630   -0.0805    0.5523 C   0  0  0  0  0  0  0  0  0  0  0  0
   -0.3053    1.2016    0.3680 C   0  0  0  0  0  0  0  0  0  0  0  0
   -1.5827   -0.7909    0.0784 N   0  0  0  0  0  0  0  0  0  0  0  0
   -2.6321   -0.2256   -0.6271 C   0  0  0  0  0  0  0  0  0  0  0  0
   -3.7710   -1.1310   -1.0703 C   0  0  0  0  0  0  0  0  0  0  0  0
   -2.7763    0.9590   -0.9591 O   0  0  0  0  0  0  0  0  0  0  0  0
    3.2762   -1.6848    1.8079 H   0  0  0  0  0  0  0  0  0  0  0  0
    2.1229   -1.7214    3.2495 H   0  0  0  0  0  0  0  0  0  0  0  0
    3.3303   -0.4269    3.1639 H   0  0  0  0  0  0  0  0  0  0  0  0
    1.9368    0.7736    1.7098 H   0  0  0  0  0  0  0  0  0  0  0  0
   -0.9935    1.8377   -0.1510 H   0  0  0  0  0  0  0  0  0  0  0  0
    0.5740    1.7340    0.7456 H   0  0  0  0  0  0  0  0  0  0  0  0
   -1.6223   -1.8432    0.2798 H   0  0  0  0  0  0  0  0  0  0  0  0
   -3.6150   -2.1587   -0.7034 H   0  0  0  0  0  0  0  0  0  0  0  0
   -4.7114   -0.7468   -0.6338 H   0  0  0  0  0  0  0  0  0  0  0  0
   -3.8176   -1.1563   -2.1712 H   0  0  0  0  0  0  0  0  0  0  0  0
  1  2  1  0
  1 11  1  0
  1 12  1  0
  1 13  1  0
  2  3  1  0
  2 14  1  0
  3  4  2  0
  3  5  1  0
  5  6  2  3
  5  7  1  0
  6 15  1  0
  6 16  1  0
  7  8  1  0
  7 17  1  0
  8  9  1  0
  8 10  2  0
  9 18  1  0
  9 19  1  0
  9 20  1  0
M  END

> <RosettaParamsInstructions>
M  ROOT 7
M  POLY_N_BB 7
M  POLY_CA_BB 5
M  POLY_C_BB 3
M  POLY_O_BB 4
M  POLY_IGNORE 1 10 9 14 11 12 13 18 19 20
M  POLY_UPPER 2
M  POLY_LOWER 8
M  POLY_CHG 0
M  POLY_PROPERTIES PROTEIN POLYMER ALPHA_AA ALIPHATIC
M  END

$$$$
DHA_new
     RDKit          3D

 20 19  0  0  0  0  0  0  0  0999 V2000
    2.6362   -1.0400    2.6568 C   0  0  0  0  0  0  0  0  0  0  0  0
    1.6490   -0.2483    1.9209 N   0  0  0  0  0  0  0  0  0  0  0  0
    0.5324   -0.8429    1.3255 C   0  0  0  0  0  0  0  0  0  0  0  0
    0.3865   -2.1072    1.4363 O   0  0  0  0  0  0  0  0  0  0  0  0
   -0.4751   -0.0898    0.5832 C   0  0  0  0  0  0  0  0  0  0  0  0
   -0.3399    1.2072    0.4606 C   0  0  0  0  0  0  0  0  0  0  0  0
   -1.5618   -0.8208    0.0279 N   0  0  0  0  0  0  0  0  0  0  0  0
   -2.6054   -0.2635   -0.7056 C   0  0  0  0  0  0  0  0  0  0  0  0
   -3.6996   -1.1575   -1.2398 C   0  0  0  0  0  0  0  0  0  0  0  0
   -2.7531    0.9436   -0.9888 O   0  0  0  0  0  0  0  0  0  0  0  0
    2.8560   -0.5317    3.6046 H   0  0  0  0  0  0  0  0  0  0  0  0
    3.5771   -1.0468    2.0655 H   0  0  0  0  0  0  0  0  0  0  0  0
    2.2523   -2.0642    2.8141 H   0  0  0  0  0  0  0  0  0  0  0  0
    1.8235    0.7630    1.8679 H   0  0  0  0  0  0  0  0  0  0  0  0
    0.5129    1.6920    0.9105 H   0  0  0  0  0  0  0  0  0  0  0  0
   -1.0150    1.8770   -0.0630 H   0  0  0  0  0  0  0  0  0  0  0  0
   -1.5556   -1.8662    0.1979 H   0  0  0  0  0  0  0  0  0  0  0  0
   -4.0197   -0.7918   -2.2379 H   0  0  0  0  0  0  0  0  0  0  0  0
   -3.2656   -2.1542   -1.3654 H   0  0  0  0  0  0  0  0  0  0  0  0
   -4.5417   -1.1099   -0.5304 H   0  0  0  0  0  0  0  0  0  0  0  0
  1  2  1  0
  1 11  1  0
  1 12  1  0
  1 13  1  0
  2  3  1  0
  2 14  1  0
  3  4  2  0
  3  5  1  0
  5  6  2  3
  5  7  1  0
  6 15  1  0
  6 16  1  0
  7  8  1  0
  7 17  1  0
  8  9  1  0
  8 10  2  0
  9 18  1  0
  9 19  1  0
  9 20  1  0
M  END

> <RosettaParamsInstructions>
M  ROOT 7
M  POLY_N_BB 7
M  POLY_CA_BB 5
M  POLY_C_BB 3
M  POLY_O_BB 4
M  POLY_IGNORE 1 10 9 14 11 12 13 18 19 20
M  POLY_UPPER 2
M  POLY_LOWER 8
M  POLY_CHG 0
M  POLY_PROPERTIES PROTEIN POLYMER ALPHA_AA ALIPHATIC
M  END

$$$$
DHA_new
     RDKit          3D

 20 19  0  0  0  0  0  0  0  0999 V2000
    2.7192   -1.0788    2.4797 C   0  0  0  0  0  0  0  0  0  0  0  0
    1.6569   -0.2346    1.8903 N   0  0  0  0  0  0  0  0  0  0  0  0
    0.5827   -0.8353    1.2466 C   0  0  0  0  0  0  0  0  0  0  0  0
    0.5390   -2.1033    1.1799 O   0  0  0  0  0  0  0  0  0  0  0  0
   -0.4915   -0.0485    0.6483 C   0  0  0  0  0  0  0  0  0  0  0  0
   -0.4454    1.2543    0.7175 C   0  0  0  0  0  0  0  0  0  0  0  0
   -1.5479   -0.7706    0.0112 N   0  0  0  0  0  0  0  0  0  0  0  0
   -2.6668   -0.2397   -0.6214 C   0  0  0  0  0  0  0  0  0  0  0  0
   -3.6864   -1.1639   -1.2436 C   0  0  0  0  0  0  0  0  0  0  0  0
   -2.9013    0.9804   -0.7179 O   0  0  0  0  0  0  0  0  0  0  0  0
    2.5401   -1.1858    3.5740 H   0  0  0  0  0  0  0  0  0  0  0  0
    3.6733   -0.5666    2.3032 H   0  0  0  0  0  0  0  0  0  0  0  0
    2.6921   -2.0581    1.9719 H   0  0  0  0  0  0  0  0  0  0  0  0
    1.7562    0.7758    1.9809 H   0  0  0  0  0  0  0  0  0  0  0  0
   -1.2014    1.8862    0.2989 H   0  0  0  0  0  0  0  0  0  0  0  0
    0.3613    1.7896    1.2036 H   0  0  0  0  0  0  0  0  0  0  0  0
   -1.4405   -1.8308    0.0392 H   0  0  0  0  0  0  0  0  0  0  0  0
   -4.3618   -1.5708   -0.4762 H   0  0  0  0  0  0  0  0  0  0  0  0
   -4.2401   -0.6380   -2.0473 H   0  0  0  0  0  0  0  0  0  0  0  0
   -3.1439   -2.0135   -1.6982 H   0  0  0  0  0  0  0  0  0  0  0  0
  1  2  1  0
  1 11  1  0
  1 12  1  0
  1 13  1  0
  2  3  1  0
  2 14  1  0
  3  4  2  0
  3  5  1  0
  5  6  2  3
  5  7  1  0
  6 15  1  0
  6 16  1  0
  7  8  1  0
  7 17  1  0
  8  9  1  0
  8 10  2  0
  9 18  1  0
  9 19  1  0
  9 20  1  0
M  END

> <RosettaParamsInstructions>
M  ROOT 7
M  POLY_N_BB 7
M  POLY_CA_BB 5
M  POLY_C_BB 3
M  POLY_O_BB 4
M  POLY_IGNORE 1 10 9 14 11 12 13 18 19 20
M  POLY_UPPER 2
M  POLY_LOWER 8
M  POLY_CHG 0
M  POLY_PROPERTIES PROTEIN POLYMER ALPHA_AA ALIPHATIC
M  END

$$$$
DHA_new
     RDKit          3D

 20 19  0  0  0  0  0  0  0  0999 V2000
    2.7148   -1.0636    2.5273 C   0  0  0  0  0  0  0  0  0  0  0  0
    1.6922   -0.2449    1.8628 N   0  0  0  0  0  0  0  0  0  0  0  0
    0.5899   -0.8445    1.2901 C   0  0  0  0  0  0  0  0  0  0  0  0
    0.4521   -2.0929    1.3321 O   0  0  0  0  0  0  0  0  0  0  0  0
   -0.4649   -0.0750    0.6119 C   0  0  0  0  0  0  0  0  0  0  0  0
   -0.3768    1.2311    0.5358 C   0  0  0  0  0  0  0  0  0  0  0  0
   -1.5669   -0.7504    0.0467 N   0  0  0  0  0  0  0  0  0  0  0  0
   -2.6756   -0.2319   -0.6380 C   0  0  0  0  0  0  0  0  0  0  0  0
   -3.7506   -1.1675   -1.1626 C   0  0  0  0  0  0  0  0  0  0  0  0
   -2.8759    0.9717   -0.8693 O   0  0  0  0  0  0  0  0  0  0  0  0
    3.6023   -1.1517    1.8481 H   0  0  0  0  0  0  0  0  0  0  0  0
    2.9911   -0.5487    3.4533 H   0  0  0  0  0  0  0  0  0  0  0  0
    2.2716   -2.0731    2.7426 H   0  0  0  0  0  0  0  0  0  0  0  0
    1.8656    0.7617    1.8645 H   0  0  0  0  0  0  0  0  0  0  0  0
   -1.1314    1.8194    0.0469 H   0  0  0  0  0  0  0  0  0  0  0  0
    0.4822    1.7235    0.9797 H   0  0  0  0  0  0  0  0  0  0  0  0
   -1.5211   -1.8302    0.1775 H   0  0  0  0  0  0  0  0  0  0  0  0
   -4.7291   -0.8657   -0.7423 H   0  0  0  0  0  0  0  0  0  0  0  0
   -3.7146   -1.0191   -2.2816 H   0  0  0  0  0  0  0  0  0  0  0  0
   -3.4611   -2.2004   -0.8846 H   0  0  0  0  0  0  0  0  0  0  0  0
  1  2  1  0
  1 11  1  0
  1 12  1  0
  1 13  1  0
  2  3  1  0
  2 14  1  0
  3  4  2  0
  3  5  1  0
  5  6  2  3
  5  7  1  0
  6 15  1  0
  6 16  1  0
  7  8  1  0
  7 17  1  0
  8  9  1  0
  8 10  2  0
  9 18  1  0
  9 19  1  0
  9 20  1  0
M  END

> <RosettaParamsInstructions>
M  ROOT 7
M  POLY_N_BB 7
M  POLY_CA_BB 5
M  POLY_C_BB 3
M  POLY_O_BB 4
M  POLY_IGNORE 1 10 9 14 11 12 13 18 19 20
M  POLY_UPPER 2
M  POLY_LOWER 8
M  POLY_CHG 0
M  POLY_PROPERTIES PROTEIN POLYMER ALPHA_AA ALIPHATIC
M  END

$$$$
DHA_new
     RDKit          3D

 20 19  0  0  0  0  0  0  0  0999 V2000
    2.7197   -1.0595    2.5199 C   0  0  0  0  0  0  0  0  0  0  0  0
    1.6954   -0.2318    1.8694 N   0  0  0  0  0  0  0  0  0  0  0  0
    0.5813   -0.8231    1.2813 C   0  0  0  0  0  0  0  0  0  0  0  0
    0.4695   -2.0926    1.3190 O   0  0  0  0  0  0  0  0  0  0  0  0
   -0.4917   -0.0600    0.6082 C   0  0  0  0  0  0  0  0  0  0  0  0
   -0.4013    1.2397    0.5558 C   0  0  0  0  0  0  0  0  0  0  0  0
   -1.5711   -0.7637    0.0488 N   0  0  0  0  0  0  0  0  0  0  0  0
   -2.6772   -0.2254   -0.6251 C   0  0  0  0  0  0  0  0  0  0  0  0
   -3.7240   -1.1718   -1.1464 C   0  0  0  0  0  0  0  0  0  0  0  0
   -2.8787    0.9892   -0.8371 O   0  0  0  0  0  0  0  0  0  0  0  0
    2.6710   -2.0516    2.0349 H   0  0  0  0  0  0  0  0  0  0  0  0
    3.7303   -0.6501    2.3174 H   0  0  0  0  0  0  0  0  0  0  0  0
    2.5268   -1.1766    3.5910 H   0  0  0  0  0  0  0  0  0  0  0  0
    1.8683    0.7724    1.8877 H   0  0  0  0  0  0  0  0  0  0  0  0
   -1.1303    1.8806    0.0887 H   0  0  0  0  0  0  0  0  0  0  0  0
    0.4569    1.7664    1.0032 H   0  0  0  0  0  0  0  0  0  0  0  0
   -1.5424   -1.8435    0.1515 H   0  0  0  0  0  0  0  0  0  0  0  0
   -4.6255   -1.1105   -0.5386 H   0  0  0  0  0  0  0  0  0  0  0  0
   -3.9692   -0.8580   -2.1835 H   0  0  0  0  0  0  0  0  0  0  0  0
   -3.3141   -2.1824   -1.2053 H   0  0  0  0  0  0  0  0  0  0  0  0
  1  2  1  0
  1 11  1  0
  1 12  1  0
  1 13  1  0
  2  3  1  0
  2 14  1  0
  3  4  2  0
  3  5  1  0
  5  6  2  3
  5  7  1  0
  6 15  1  0
  6 16  1  0
  7  8  1  0
  7 17  1  0
  8  9  1  0
  8 10  2  0
  9 18  1  0
  9 19  1  0
  9 20  1  0
M  END

> <RosettaParamsInstructions>
M  ROOT 7
M  POLY_N_BB 7
M  POLY_CA_BB 5
M  POLY_C_BB 3
M  POLY_O_BB 4
M  POLY_IGNORE 1 10 9 14 11 12 13 18 19 20
M  POLY_UPPER 2
M  POLY_LOWER 8
M  POLY_CHG 0
M  POLY_PROPERTIES PROTEIN POLYMER ALPHA_AA ALIPHATIC
M  END

$$$$
DHA_new
     RDKit          3D

 20 19  0  0  0  0  0  0  0  0999 V2000
    2.6518   -1.0334    2.5718 C   0  0  0  0  0  0  0  0  0  0  0  0
    1.6719   -0.2099    1.8558 N   0  0  0  0  0  0  0  0  0  0  0  0
    0.5564   -0.8281    1.3055 C   0  0  0  0  0  0  0  0  0  0  0  0
    0.4150   -2.0860    1.4365 O   0  0  0  0  0  0  0  0  0  0  0  0
   -0.4684   -0.0749    0.5750 C   0  0  0  0  0  0  0  0  0  0  0  0
   -0.3118    1.2145    0.4476 C   0  0  0  0  0  0  0  0  0  0  0  0
   -1.5681   -0.7765    0.0483 N   0  0  0  0  0  0  0  0  0  0  0  0
   -2.6362   -0.2278   -0.6727 C   0  0  0  0  0  0  0  0  0  0  0  0
   -3.7301   -1.1536   -1.1579 C   0  0  0  0  0  0  0  0  0  0  0  0
   -2.7657    0.9634   -0.9516 O   0  0  0  0  0  0  0  0  0  0  0  0
    3.4911   -0.4553    2.9552 H   0  0  0  0  0  0  0  0  0  0  0  0
    2.1578   -1.5431    3.4050 H   0  0  0  0  0  0  0  0  0  0  0  0
    3.0534   -1.8276    1.8944 H   0  0  0  0  0  0  0  0  0  0  0  0
    1.8692    0.7876    1.8019 H   0  0  0  0  0  0  0  0  0  0  0  0
    0.5378    1.7697    0.8523 H   0  0  0  0  0  0  0  0  0  0  0  0
   -1.0183    1.8199   -0.0706 H   0  0  0  0  0  0  0  0  0  0  0  0
   -1.5812   -1.8512    0.2235 H   0  0  0  0  0  0  0  0  0  0  0  0
   -4.5272   -1.1865   -0.3886 H   0  0  0  0  0  0  0  0  0  0  0  0
   -3.2885   -2.1780   -1.2839 H   0  0  0  0  0  0  0  0  0  0  0  0
   -4.1153   -0.7756   -2.1068 H   0  0  0  0  0  0  0  0  0  0  0  0
  1  2  1  0
  1 11  1  0
  1 12  1  0
  1 13  1  0
  2  3  1  0
  2 14  1  0
  3  4  2  0
  3  5  1  0
  5  6  2  3
  5  7  1  0
  6 15  1  0
  6 16  1  0
  7  8  1  0
  7 17  1  0
  8  9  1  0
  8 10  2  0
  9 18  1  0
  9 19  1  0
  9 20  1  0
M  END

> <RosettaParamsInstructions>
M  ROOT 7
M  POLY_N_BB 7
M  POLY_CA_BB 5
M  POLY_C_BB 3
M  POLY_O_BB 4
M  POLY_IGNORE 1 10 9 14 11 12 13 18 19 20
M  POLY_UPPER 2
M  POLY_LOWER 8
M  POLY_CHG 0
M  POLY_PROPERTIES PROTEIN POLYMER ALPHA_AA ALIPHATIC
M  END

$$$$
DHA_new
     RDKit          3D

 20 19  0  0  0  0  0  0  0  0999 V2000
    2.7345   -1.1088    2.5138 C   0  0  0  0  0  0  0  0  0  0  0  0
    1.7218   -0.2582    1.8746 N   0  0  0  0  0  0  0  0  0  0  0  0
    0.5770   -0.8042    1.2609 C   0  0  0  0  0  0  0  0  0  0  0  0
    0.4720   -2.0768    1.2928 O   0  0  0  0  0  0  0  0  0  0  0  0
   -0.4755   -0.0430    0.6054 C   0  0  0  0  0  0  0  0  0  0  0  0
   -0.4334    1.2649    0.5349 C   0  0  0  0  0  0  0  0  0  0  0  0
   -1.5650   -0.7462    0.0346 N   0  0  0  0  0  0  0  0  0  0  0  0
   -2.6632   -0.2073   -0.6309 C   0  0  0  0  0  0  0  0  0  0  0  0
   -3.7005   -1.1680   -1.1533 C   0  0  0  0  0  0  0  0  0  0  0  0
   -2.8988    0.9865   -0.8515 O   0  0  0  0  0  0  0  0  0  0  0  0
    3.4828   -1.3284    1.7552 H   0  0  0  0  0  0  0  0  0  0  0  0
    3.1112   -0.5378    3.3765 H   0  0  0  0  0  0  0  0  0  0  0  0
    2.2964   -2.0762    2.8383 H   0  0  0  0  0  0  0  0  0  0  0  0
    1.8460    0.7766    1.8707 H   0  0  0  0  0  0  0  0  0  0  0  0
   -1.1460    1.9155    0.0814 H   0  0  0  0  0  0  0  0  0  0  0  0
    0.4218    1.7825    0.9855 H   0  0  0  0  0  0  0  0  0  0  0  0
   -1.5175   -1.8008    0.1378 H   0  0  0  0  0  0  0  0  0  0  0  0
   -3.7859   -1.9677   -0.4109 H   0  0  0  0  0  0  0  0  0  0  0  0
   -4.6919   -0.6895   -1.2380 H   0  0  0  0  0  0  0  0  0  0  0  0
   -3.3922   -1.5656   -2.1369 H   0  0  0  0  0  0  0  0  0  0  0  0
  1  2  1  0
  1 11  1  0
  1 12  1  0
  1 13  1  0
  2  3  1  0
  2 14  1  0
  3  4  2  0
  3  5  1  0
  5  6  2  3
  5  7  1  0
  6 15  1  0
  6 16  1  0
  7  8  1  0
  7 17  1  0
  8  9  1  0
  8 10  2  0
  9 18  1  0
  9 19  1  0
  9 20  1  0
M  END

> <RosettaParamsInstructions>
M  ROOT 7
M  POLY_N_BB 7
M  POLY_CA_BB 5
M  POLY_C_BB 3
M  POLY_O_BB 4
M  POLY_IGNORE 1 10 9 14 11 12 13 18 19 20
M  POLY_UPPER 2
M  POLY_LOWER 8
M  POLY_CHG 0
M  POLY_PROPERTIES PROTEIN POLYMER ALPHA_AA ALIPHATIC
M  END

$$$$
DHA_new
     RDKit          3D

 20 19  0  0  0  0  0  0  0  0999 V2000
    2.6285   -1.0269    2.6657 C   0  0  0  0  0  0  0  0  0  0  0  0
    1.7011   -0.2425    1.8322 N   0  0  0  0  0  0  0  0  0  0  0  0
    0.5313   -0.8080    1.3454 C   0  0  0  0  0  0  0  0  0  0  0  0
    0.2875   -2.0248    1.6430 O   0  0  0  0  0  0  0  0  0  0  0  0
   -0.4472   -0.0931    0.5070 C   0  0  0  0  0  0  0  0  0  0  0  0
   -0.2019    1.1507    0.2005 C   0  0  0  0  0  0  0  0  0  0  0  0
   -1.5916   -0.7748    0.0775 N   0  0  0  0  0  0  0  0  0  0  0  0
   -2.6079   -0.2570   -0.7119 C   0  0  0  0  0  0  0  0  0  0  0  0
   -3.7846   -1.1266   -1.0922 C   0  0  0  0  0  0  0  0  0  0  0  0
   -2.6517    0.9050   -1.1597 O   0  0  0  0  0  0  0  0  0  0  0  0
    3.4944   -1.3576    2.0862 H   0  0  0  0  0  0  0  0  0  0  0  0
    2.1163   -1.9291    3.0514 H   0  0  0  0  0  0  0  0  0  0  0  0
    2.9190   -0.4115    3.5332 H   0  0  0  0  0  0  0  0  0  0  0  0
    1.9913    0.7285    1.6514 H   0  0  0  0  0  0  0  0  0  0  0  0
    0.7144    1.6587    0.5581 H   0  0  0  0  0  0  0  0  0  0  0  0
   -0.8350    1.7666   -0.3976 H   0  0  0  0  0  0  0  0  0  0  0  0
   -1.6838   -1.7931    0.3927 H   0  0  0  0  0  0  0  0  0  0  0  0
   -3.5856   -1.5764   -2.0654 H   0  0  0  0  0  0  0  0  0  0  0  0
   -3.9072   -1.9327   -0.3282 H   0  0  0  0  0  0  0  0  0  0  0  0
   -4.6938   -0.5076   -1.0486 H   0  0  0  0  0  0  0  0  0  0  0  0
  1  2  1  0
  1 11  1  0
  1 12  1  0
  1 13  1  0
  2  3  1  0
  2 14  1  0
  3  4  2  0
  3  5  1  0
  5  6  2  3
  5  7  1  0
  6 15  1  0
  6 16  1  0
  7  8  1  0
  7 17  1  0
  8  9  1  0
  8 10  2  0
  9 18  1  0
  9 19  1  0
  9 20  1  0
M  END

> <RosettaParamsInstructions>
M  ROOT 7
M  POLY_N_BB 7
M  POLY_CA_BB 5
M  POLY_C_BB 3
M  POLY_O_BB 4
M  POLY_IGNORE 1 10 9 14 11 12 13 18 19 20
M  POLY_UPPER 2
M  POLY_LOWER 8
M  POLY_CHG 0
M  POLY_PROPERTIES PROTEIN POLYMER ALPHA_AA ALIPHATIC
M  END

$$$$
DHA_new
     RDKit          3D

 20 19  0  0  0  0  0  0  0  0999 V2000
    2.7051   -1.0443    2.5173 C   0  0  0  0  0  0  0  0  0  0  0  0
    1.6963   -0.2019    1.8472 N   0  0  0  0  0  0  0  0  0  0  0  0
    0.5986   -0.8501    1.2911 C   0  0  0  0  0  0  0  0  0  0  0  0
    0.4618   -2.1215    1.3535 O   0  0  0  0  0  0  0  0  0  0  0  0
   -0.4621   -0.0754    0.5988 C   0  0  0  0  0  0  0  0  0  0  0  0
   -0.3491    1.2196    0.5203 C   0  0  0  0  0  0  0  0  0  0  0  0
   -1.5640   -0.7966    0.0484 N   0  0  0  0  0  0  0  0  0  0  0  0
   -2.6536   -0.2492   -0.6352 C   0  0  0  0  0  0  0  0  0  0  0  0
   -3.7547   -1.1575   -1.1645 C   0  0  0  0  0  0  0  0  0  0  0  0
   -2.8064    0.9660   -0.8570 O   0  0  0  0  0  0  0  0  0  0  0  0
    2.3200   -1.2015    3.5503 H   0  0  0  0  0  0  0  0  0  0  0  0
    2.7265   -2.0249    1.9993 H   0  0  0  0  0  0  0  0  0  0  0  0
    3.6756   -0.5532    2.5401 H   0  0  0  0  0  0  0  0  0  0  0  0
    1.8942    0.7906    1.8511 H   0  0  0  0  0  0  0  0  0  0  0  0
   -1.0709    1.8590    0.0368 H   0  0  0  0  0  0  0  0  0  0  0  0
    0.5134    1.7345    0.9566 H   0  0  0  0  0  0  0  0  0  0  0  0
   -1.5500   -1.8745    0.1756 H   0  0  0  0  0  0  0  0  0  0  0  0
   -4.7073   -0.7450   -0.7851 H   0  0  0  0  0  0  0  0  0  0  0  0
   -3.7219   -1.1354   -2.2703 H   0  0  0  0  0  0  0  0  0  0  0  0
   -3.5580   -2.1909   -0.8335 H   0  0  0  0  0  0  0  0  0  0  0  0
  1  2  1  0
  1 11  1  0
  1 12  1  0
  1 13  1  0
  2  3  1  0
  2 14  1  0
  3  4  2  0
  3  5  1  0
  5  6  2  3
  5  7  1  0
  6 15  1  0
  6 16  1  0
  7  8  1  0
  7 17  1  0
  8  9  1  0
  8 10  2  0
  9 18  1  0
  9 19  1  0
  9 20  1  0
M  END

> <RosettaParamsInstructions>
M  ROOT 7
M  POLY_N_BB 7
M  POLY_CA_BB 5
M  POLY_C_BB 3
M  POLY_O_BB 4
M  POLY_IGNORE 1 10 9 14 11 12 13 18 19 20
M  POLY_UPPER 2
M  POLY_LOWER 8
M  POLY_CHG 0
M  POLY_PROPERTIES PROTEIN POLYMER ALPHA_AA ALIPHATIC
M  END

$$$$
DHA_new
     RDKit          3D

 20 19  0  0  0  0  0  0  0  0999 V2000
    2.6632   -1.0732    2.5880 C   0  0  0  0  0  0  0  0  0  0  0  0
    1.7331   -0.2120    1.8273 N   0  0  0  0  0  0  0  0  0  0  0  0
    0.5729   -0.7899    1.3171 C   0  0  0  0  0  0  0  0  0  0  0  0
    0.3590   -2.0253    1.5229 O   0  0  0  0  0  0  0  0  0  0  0  0
   -0.4476   -0.0671    0.5414 C   0  0  0  0  0  0  0  0  0  0  0  0
   -0.2542    1.2165    0.3111 C   0  0  0  0  0  0  0  0  0  0  0  0
   -1.5894   -0.7808    0.0779 N   0  0  0  0  0  0  0  0  0  0  0  0
   -2.6356   -0.2677   -0.6568 C   0  0  0  0  0  0  0  0  0  0  0  0
   -3.7892   -1.1511   -1.0819 C   0  0  0  0  0  0  0  0  0  0  0  0
   -2.7419    0.9159   -1.0320 O   0  0  0  0  0  0  0  0  0  0  0  0
    3.2964   -1.6117    1.8672 H   0  0  0  0  0  0  0  0  0  0  0  0
    2.0331   -1.7833    3.1525 H   0  0  0  0  0  0  0  0  0  0  0  0
    3.2764   -0.4739    3.2825 H   0  0  0  0  0  0  0  0  0  0  0  0
    1.9898    0.7809    1.7103 H   0  0  0  0  0  0  0  0  0  0  0  0
   -0.9310    1.8594   -0.2467 H   0  0  0  0  0  0  0  0  0  0  0  0
    0.6498    1.6827    0.7043 H   0  0  0  0  0  0  0  0  0  0  0  0
   -1.6224   -1.8201    0.3351 H   0  0  0  0  0  0  0  0  0  0  0  0
   -4.0490   -0.8964   -2.1210 H   0  0  0  0  0  0  0  0  0  0  0  0
   -4.6484   -0.9475   -0.4111 H   0  0  0  0  0  0  0  0  0  0  0  0
   -3.4714   -2.2074   -0.9473 H   0  0  0  0  0  0  0  0  0  0  0  0
  1  2  1  0
  1 11  1  0
  1 12  1  0
  1 13  1  0
  2  3  1  0
  2 14  1  0
  3  4  2  0
  3  5  1  0
  5  6  2  3
  5  7  1  0
  6 15  1  0
  6 16  1  0
  7  8  1  0
  7 17  1  0
  8  9  1  0
  8 10  2  0
  9 18  1  0
  9 19  1  0
  9 20  1  0
M  END

> <RosettaParamsInstructions>
M  ROOT 7
M  POLY_N_BB 7
M  POLY_CA_BB 5
M  POLY_C_BB 3
M  POLY_O_BB 4
M  POLY_IGNORE 1 10 9 14 11 12 13 18 19 20
M  POLY_UPPER 2
M  POLY_LOWER 8
M  POLY_CHG 0
M  POLY_PROPERTIES PROTEIN POLYMER ALPHA_AA ALIPHATIC
M  END

$$$$
DHA_new
     RDKit          3D

 20 19  0  0  0  0  0  0  0  0999 V2000
    2.7087   -1.0485    2.5480 C   0  0  0  0  0  0  0  0  0  0  0  0
    1.6973   -0.2070    1.8625 N   0  0  0  0  0  0  0  0  0  0  0  0
    0.5997   -0.8356    1.3015 C   0  0  0  0  0  0  0  0  0  0  0  0
    0.4711   -2.0899    1.3760 O   0  0  0  0  0  0  0  0  0  0  0  0
   -0.4676   -0.1053    0.5969 C   0  0  0  0  0  0  0  0  0  0  0  0
   -0.3767    1.1951    0.4952 C   0  0  0  0  0  0  0  0  0  0  0  0
   -1.5611   -0.7995    0.0462 N   0  0  0  0  0  0  0  0  0  0  0  0
   -2.6179   -0.2614   -0.6295 C   0  0  0  0  0  0  0  0  0  0  0  0
   -3.7161   -1.1632   -1.1583 C   0  0  0  0  0  0  0  0  0  0  0  0
   -2.7831    0.9403   -0.8679 O   0  0  0  0  0  0  0  0  0  0  0  0
    3.3063   -1.5090    1.7590 H   0  0  0  0  0  0  0  0  0  0  0  0
    3.2457   -0.4142    3.2514 H   0  0  0  0  0  0  0  0  0  0  0  0
    2.1159   -1.8517    3.0464 H   0  0  0  0  0  0  0  0  0  0  0  0
    1.8667    0.8060    1.8394 H   0  0  0  0  0  0  0  0  0  0  0  0
    0.4814    1.7334    0.9281 H   0  0  0  0  0  0  0  0  0  0  0  0
   -1.0685    1.8601    0.0157 H   0  0  0  0  0  0  0  0  0  0  0  0
   -1.5429   -1.8604    0.1827 H   0  0  0  0  0  0  0  0  0  0  0  0
   -3.5108   -2.2150   -0.9388 H   0  0  0  0  0  0  0  0  0  0  0  0
   -4.6334   -0.8194   -0.6561 H   0  0  0  0  0  0  0  0  0  0  0  0
   -3.8212   -1.0069   -2.2576 H   0  0  0  0  0  0  0  0  0  0  0  0
  1  2  1  0
  1 11  1  0
  1 12  1  0
  1 13  1  0
  2  3  1  0
  2 14  1  0
  3  4  2  0
  3  5  1  0
  5  6  2  3
  5  7  1  0
  6 15  1  0
  6 16  1  0
  7  8  1  0
  7 17  1  0
  8  9  1  0
  8 10  2  0
  9 18  1  0
  9 19  1  0
  9 20  1  0
M  END

> <RosettaParamsInstructions>
M  ROOT 7
M  POLY_N_BB 7
M  POLY_CA_BB 5
M  POLY_C_BB 3
M  POLY_O_BB 4
M  POLY_IGNORE 1 10 9 14 11 12 13 18 19 20
M  POLY_UPPER 2
M  POLY_LOWER 8
M  POLY_CHG 0
M  POLY_PROPERTIES PROTEIN POLYMER ALPHA_AA ALIPHATIC
M  END

$$$$
DHA_new
     RDKit          3D

 20 19  0  0  0  0  0  0  0  0999 V2000
    2.6222   -1.0453    2.6661 C   0  0  0  0  0  0  0  0  0  0  0  0
    1.6791   -0.2451    1.8864 N   0  0  0  0  0  0  0  0  0  0  0  0
    0.5119   -0.8089    1.3288 C   0  0  0  0  0  0  0  0  0  0  0  0
    0.3044   -2.0423    1.5269 O   0  0  0  0  0  0  0  0  0  0  0  0
   -0.4524   -0.0471    0.5462 C   0  0  0  0  0  0  0  0  0  0  0  0
   -0.2610    1.2332    0.3261 C   0  0  0  0  0  0  0  0  0  0  0  0
   -1.5779   -0.7538    0.0514 N   0  0  0  0  0  0  0  0  0  0  0  0
   -2.6372   -0.2598   -0.7184 C   0  0  0  0  0  0  0  0  0  0  0  0
   -3.7412   -1.1590   -1.1497 C   0  0  0  0  0  0  0  0  0  0  0  0
   -2.6813    0.9353   -1.0584 O   0  0  0  0  0  0  0  0  0  0  0  0
    2.1558   -1.9291    3.1045 H   0  0  0  0  0  0  0  0  0  0  0  0
    3.4178   -1.4134    1.9567 H   0  0  0  0  0  0  0  0  0  0  0  0
    3.0920   -0.4469    3.4607 H   0  0  0  0  0  0  0  0  0  0  0  0
    1.9486    0.7537    1.7872 H   0  0  0  0  0  0  0  0  0  0  0  0
   -0.8903    1.8981   -0.2286 H   0  0  0  0  0  0  0  0  0  0  0  0
    0.6288    1.7183    0.7366 H   0  0  0  0  0  0  0  0  0  0  0  0
   -1.6647   -1.8088    0.2756 H   0  0  0  0  0  0  0  0  0  0  0  0
   -3.4203   -1.7799   -2.0158 H   0  0  0  0  0  0  0  0  0  0  0  0
   -4.0162   -1.8791   -0.3262 H   0  0  0  0  0  0  0  0  0  0  0  0
   -4.6246   -0.5724   -1.4155 H   0  0  0  0  0  0  0  0  0  0  0  0
  1  2  1  0
  1 11  1  0
  1 12  1  0
  1 13  1  0
  2  3  1  0
  2 14  1  0
  3  4  2  0
  3  5  1  0
  5  6  2  3
  5  7  1  0
  6 15  1  0
  6 16  1  0
  7  8  1  0
  7 17  1  0
  8  9  1  0
  8 10  2  0
  9 18  1  0
  9 19  1  0
  9 20  1  0
M  END

> <RosettaParamsInstructions>
M  ROOT 7
M  POLY_N_BB 7
M  POLY_CA_BB 5
M  POLY_C_BB 3
M  POLY_O_BB 4
M  POLY_IGNORE 1 10 9 14 11 12 13 18 19 20
M  POLY_UPPER 2
M  POLY_LOWER 8
M  POLY_CHG 0
M  POLY_PROPERTIES PROTEIN POLYMER ALPHA_AA ALIPHATIC
M  END

$$$$
DHA_new
     RDKit          3D

 20 19  0  0  0  0  0  0  0  0999 V2000
    2.5987   -1.0387    2.6607 C   0  0  0  0  0  0  0  0  0  0  0  0
    1.6823   -0.1925    1.8623 N   0  0  0  0  0  0  0  0  0  0  0  0
    0.5364   -0.7953    1.3454 C   0  0  0  0  0  0  0  0  0  0  0  0
    0.3249   -2.0315    1.5761 O   0  0  0  0  0  0  0  0  0  0  0  0
   -0.4267   -0.0582    0.5504 C   0  0  0  0  0  0  0  0  0  0  0  0
   -0.2449    1.2021    0.2948 C   0  0  0  0  0  0  0  0  0  0  0  0
   -1.5514   -0.7658    0.0766 N   0  0  0  0  0  0  0  0  0  0  0  0
   -2.6120   -0.2688   -0.7078 C   0  0  0  0  0  0  0  0  0  0  0  0
   -3.7481   -1.1661   -1.1335 C   0  0  0  0  0  0  0  0  0  0  0  0
   -2.7134    0.9035   -1.1089 O   0  0  0  0  0  0  0  0  0  0  0  0
    3.6283   -0.6692    2.5723 H   0  0  0  0  0  0  0  0  0  0  0  0
    2.5533   -2.0852    2.2498 H   0  0  0  0  0  0  0  0  0  0  0  0
    2.2718   -1.0714    3.7211 H   0  0  0  0  0  0  0  0  0  0  0  0
    1.9867    0.7963    1.7595 H   0  0  0  0  0  0  0  0  0  0  0  0
   -0.9155    1.8456   -0.2965 H   0  0  0  0  0  0  0  0  0  0  0  0
    0.6638    1.6856    0.7032 H   0  0  0  0  0  0  0  0  0  0  0  0
   -1.6552   -1.8131    0.3175 H   0  0  0  0  0  0  0  0  0  0  0  0
   -3.8746   -1.0271   -2.2225 H   0  0  0  0  0  0  0  0  0  0  0  0
   -3.4665   -2.2100   -0.9361 H   0  0  0  0  0  0  0  0  0  0  0  0
   -4.6443   -0.8925   -0.5436 H   0  0  0  0  0  0  0  0  0  0  0  0
  1  2  1  0
  1 11  1  0
  1 12  1  0
  1 13  1  0
  2  3  1  0
  2 14  1  0
  3  4  2  0
  3  5  1  0
  5  6  2  3
  5  7  1  0
  6 15  1  0
  6 16  1  0
  7  8  1  0
  7 17  1  0
  8  9  1  0
  8 10  2  0
  9 18  1  0
  9 19  1  0
  9 20  1  0
M  END

> <RosettaParamsInstructions>
M  ROOT 7
M  POLY_N_BB 7
M  POLY_CA_BB 5
M  POLY_C_BB 3
M  POLY_O_BB 4
M  POLY_IGNORE 1 10 9 14 11 12 13 18 19 20
M  POLY_UPPER 2
M  POLY_LOWER 8
M  POLY_CHG 0
M  POLY_PROPERTIES PROTEIN POLYMER ALPHA_AA ALIPHATIC
M  END

$$$$
DHA_new
     RDKit          3D

 20 19  0  0  0  0  0  0  0  0999 V2000
    2.6770   -1.0518    2.5860 C   0  0  0  0  0  0  0  0  0  0  0  0
    1.6873   -0.2549    1.8548 N   0  0  0  0  0  0  0  0  0  0  0  0
    0.5462   -0.8421    1.3053 C   0  0  0  0  0  0  0  0  0  0  0  0
    0.3838   -2.0972    1.4554 O   0  0  0  0  0  0  0  0  0  0  0  0
   -0.4791   -0.0774    0.5597 C   0  0  0  0  0  0  0  0  0  0  0  0
   -0.3371    1.2121    0.3911 C   0  0  0  0  0  0  0  0  0  0  0  0
   -1.5945   -0.7687    0.0455 N   0  0  0  0  0  0  0  0  0  0  0  0
   -2.6341   -0.2117   -0.6678 C   0  0  0  0  0  0  0  0  0  0  0  0
   -3.7382   -1.1595   -1.1255 C   0  0  0  0  0  0  0  0  0  0  0  0
   -2.7344    0.9862   -0.9596 O   0  0  0  0  0  0  0  0  0  0  0  0
    3.6701   -0.7533    2.2057 H   0  0  0  0  0  0  0  0  0  0  0  0
    2.4764   -2.1182    2.3471 H   0  0  0  0  0  0  0  0  0  0  0  0
    2.5338   -0.8506    3.6639 H   0  0  0  0  0  0  0  0  0  0  0  0
    1.9138    0.7477    1.7913 H   0  0  0  0  0  0  0  0  0  0  0  0
   -1.0187    1.8460   -0.1290 H   0  0  0  0  0  0  0  0  0  0  0  0
    0.5663    1.6860    0.8244 H   0  0  0  0  0  0  0  0  0  0  0  0
   -1.6038   -1.8319    0.2473 H   0  0  0  0  0  0  0  0  0  0  0  0
   -3.4301   -1.5662   -2.0975 H   0  0  0  0  0  0  0  0  0  0  0  0
   -4.6665   -0.5674   -1.1721 H   0  0  0  0  0  0  0  0  0  0  0  0
   -3.8247   -1.9793   -0.3854 H   0  0  0  0  0  0  0  0  0  0  0  0
  1  2  1  0
  1 11  1  0
  1 12  1  0
  1 13  1  0
  2  3  1  0
  2 14  1  0
  3  4  2  0
  3  5  1  0
  5  6  2  3
  5  7  1  0
  6 15  1  0
  6 16  1  0
  7  8  1  0
  7 17  1  0
  8  9  1  0
  8 10  2  0
  9 18  1  0
  9 19  1  0
  9 20  1  0
M  END

> <RosettaParamsInstructions>
M  ROOT 7
M  POLY_N_BB 7
M  POLY_CA_BB 5
M  POLY_C_BB 3
M  POLY_O_BB 4
M  POLY_IGNORE 1 10 9 14 11 12 13 18 19 20
M  POLY_UPPER 2
M  POLY_LOWER 8
M  POLY_CHG 0
M  POLY_PROPERTIES PROTEIN POLYMER ALPHA_AA ALIPHATIC
M  END

$$$$
DHA_new
     RDKit          3D

 20 19  0  0  0  0  0  0  0  0999 V2000
    2.7165   -1.0756    2.5252 C   0  0  0  0  0  0  0  0  0  0  0  0
    1.7014   -0.2400    1.8723 N   0  0  0  0  0  0  0  0  0  0  0  0
    0.5904   -0.8242    1.2813 C   0  0  0  0  0  0  0  0  0  0  0  0
    0.4688   -2.0894    1.3156 O   0  0  0  0  0  0  0  0  0  0  0  0
   -0.4825   -0.0574    0.6009 C   0  0  0  0  0  0  0  0  0  0  0  0
   -0.3806    1.2459    0.5521 C   0  0  0  0  0  0  0  0  0  0  0  0
   -1.5566   -0.7488    0.0400 N   0  0  0  0  0  0  0  0  0  0  0  0
   -2.6709   -0.2406   -0.6428 C   0  0  0  0  0  0  0  0  0  0  0  0
   -3.7386   -1.1585   -1.1813 C   0  0  0  0  0  0  0  0  0  0  0  0
   -2.8835    0.9661   -0.8646 O   0  0  0  0  0  0  0  0  0  0  0  0
    3.6970   -0.6521    2.2276 H   0  0  0  0  0  0  0  0  0  0  0  0
    2.5697   -1.0513    3.6176 H   0  0  0  0  0  0  0  0  0  0  0  0
    2.6393   -2.1392    2.1579 H   0  0  0  0  0  0  0  0  0  0  0  0
    1.8699    0.7802    1.8851 H   0  0  0  0  0  0  0  0  0  0  0  0
    0.4544    1.8052    0.9863 H   0  0  0  0  0  0  0  0  0  0  0  0
   -1.1302    1.8376    0.0720 H   0  0  0  0  0  0  0  0  0  0  0  0
   -1.5189   -1.8143    0.1495 H   0  0  0  0  0  0  0  0  0  0  0  0
   -4.6393   -1.0414   -0.5450 H   0  0  0  0  0  0  0  0  0  0  0  0
   -3.9214   -0.9503   -2.2415 H   0  0  0  0  0  0  0  0  0  0  0  0
   -3.3914   -2.2043   -1.0673 H   0  0  0  0  0  0  0  0  0  0  0  0
  1  2  1  0
  1 11  1  0
  1 12  1  0
  1 13  1  0
  2  3  1  0
  2 14  1  0
  3  4  2  0
  3  5  1  0
  5  6  2  3
  5  7  1  0
  6 15  1  0
  6 16  1  0
  7  8  1  0
  7 17  1  0
  8  9  1  0
  8 10  2  0
  9 18  1  0
  9 19  1  0
  9 20  1  0
M  END

> <RosettaParamsInstructions>
M  ROOT 7
M  POLY_N_BB 7
M  POLY_CA_BB 5
M  POLY_C_BB 3
M  POLY_O_BB 4
M  POLY_IGNORE 1 10 9 14 11 12 13 18 19 20
M  POLY_UPPER 2
M  POLY_LOWER 8
M  POLY_CHG 0
M  POLY_PROPERTIES PROTEIN POLYMER ALPHA_AA ALIPHATIC
M  END

$$$$
DHA_new
     RDKit          3D

 20 19  0  0  0  0  0  0  0  0999 V2000
    2.7061   -1.0590    2.5550 C   0  0  0  0  0  0  0  0  0  0  0  0
    1.7281   -0.2588    1.8436 N   0  0  0  0  0  0  0  0  0  0  0  0
    0.5574   -0.8049    1.2880 C   0  0  0  0  0  0  0  0  0  0  0  0
    0.4141   -2.0685    1.4558 O   0  0  0  0  0  0  0  0  0  0  0  0
   -0.4769   -0.0694    0.5574 C   0  0  0  0  0  0  0  0  0  0  0  0
   -0.3468    1.2142    0.3783 C   0  0  0  0  0  0  0  0  0  0  0  0
   -1.5701   -0.7782    0.0779 N   0  0  0  0  0  0  0  0  0  0  0  0
   -2.6458   -0.2474   -0.6358 C   0  0  0  0  0  0  0  0  0  0  0  0
   -3.7818   -1.1597   -1.0995 C   0  0  0  0  0  0  0  0  0  0  0  0
   -2.8374    0.9436   -0.9789 O   0  0  0  0  0  0  0  0  0  0  0  0
    2.5838   -2.1437    2.2769 H   0  0  0  0  0  0  0  0  0  0  0  0
    2.5977   -0.9966    3.6535 H   0  0  0  0  0  0  0  0  0  0  0  0
    3.7482   -0.7447    2.3112 H   0  0  0  0  0  0  0  0  0  0  0  0
    1.9383    0.7479    1.7643 H   0  0  0  0  0  0  0  0  0  0  0  0
    0.5446    1.7026    0.7869 H   0  0  0  0  0  0  0  0  0  0  0  0
   -1.0496    1.8462   -0.1443 H   0  0  0  0  0  0  0  0  0  0  0  0
   -1.6003   -1.8317    0.2682 H   0  0  0  0  0  0  0  0  0  0  0  0
   -4.6993   -0.6814   -0.7118 H   0  0  0  0  0  0  0  0  0  0  0  0
   -3.7911   -1.0809   -2.1923 H   0  0  0  0  0  0  0  0  0  0  0  0
   -3.6258   -2.1819   -0.7134 H   0  0  0  0  0  0  0  0  0  0  0  0
  1  2  1  0
  1 11  1  0
  1 12  1  0
  1 13  1  0
  2  3  1  0
  2 14  1  0
  3  4  2  0
  3  5  1  0
  5  6  2  3
  5  7  1  0
  6 15  1  0
  6 16  1  0
  7  8  1  0
  7 17  1  0
  8  9  1  0
  8 10  2  0
  9 18  1  0
  9 19  1  0
  9 20  1  0
M  END

> <RosettaParamsInstructions>
M  ROOT 7
M  POLY_N_BB 7
M  POLY_CA_BB 5
M  POLY_C_BB 3
M  POLY_O_BB 4
M  POLY_IGNORE 1 10 9 14 11 12 13 18 19 20
M  POLY_UPPER 2
M  POLY_LOWER 8
M  POLY_CHG 0
M  POLY_PROPERTIES PROTEIN POLYMER ALPHA_AA ALIPHATIC
M  END

$$$$
DHA_new
     RDKit          3D

 20 19  0  0  0  0  0  0  0  0999 V2000
    2.6928   -1.0420    2.5302 C   0  0  0  0  0  0  0  0  0  0  0  0
    1.6599   -0.2205    1.9034 N   0  0  0  0  0  0  0  0  0  0  0  0
    0.5870   -0.8334    1.2783 C   0  0  0  0  0  0  0  0  0  0  0  0
    0.5310   -2.1111    1.2677 O   0  0  0  0  0  0  0  0  0  0  0  0
   -0.5049   -0.0583    0.6173 C   0  0  0  0  0  0  0  0  0  0  0  0
   -0.4408    1.2562    0.6321 C   0  0  0  0  0  0  0  0  0  0  0  0
   -1.5404   -0.8026    0.0167 N   0  0  0  0  0  0  0  0  0  0  0  0
   -2.6325   -0.2793   -0.6399 C   0  0  0  0  0  0  0  0  0  0  0  0
   -3.6938   -1.1706   -1.2533 C   0  0  0  0  0  0  0  0  0  0  0  0
   -2.8414    0.9318   -0.7851 O   0  0  0  0  0  0  0  0  0  0  0  0
    3.2570   -0.4724    3.2897 H   0  0  0  0  0  0  0  0  0  0  0  0
    3.4318   -1.4065    1.7716 H   0  0  0  0  0  0  0  0  0  0  0  0
    2.2028   -1.9421    2.9750 H   0  0  0  0  0  0  0  0  0  0  0  0
    1.7881    0.7958    1.9614 H   0  0  0  0  0  0  0  0  0  0  0  0
   -1.1674    1.8766    0.1905 H   0  0  0  0  0  0  0  0  0  0  0  0
    0.3863    1.7766    1.1132 H   0  0  0  0  0  0  0  0  0  0  0  0
   -1.4830   -1.8686    0.0696 H   0  0  0  0  0  0  0  0  0  0  0  0
   -4.7053   -0.7802   -0.9689 H   0  0  0  0  0  0  0  0  0  0  0  0
   -3.6072   -1.1220   -2.3590 H   0  0  0  0  0  0  0  0  0  0  0  0
   -3.5263   -2.1796   -0.8693 H   0  0  0  0  0  0  0  0  0  0  0  0
  1  2  1  0
  1 11  1  0
  1 12  1  0
  1 13  1  0
  2  3  1  0
  2 14  1  0
  3  4  2  0
  3  5  1  0
  5  6  2  3
  5  7  1  0
  6 15  1  0
  6 16  1  0
  7  8  1  0
  7 17  1  0
  8  9  1  0
  8 10  2  0
  9 18  1  0
  9 19  1  0
  9 20  1  0
M  END

> <RosettaParamsInstructions>
M  ROOT 7
M  POLY_N_BB 7
M  POLY_CA_BB 5
M  POLY_C_BB 3
M  POLY_O_BB 4
M  POLY_IGNORE 1 10 9 14 11 12 13 18 19 20
M  POLY_UPPER 2
M  POLY_LOWER 8
M  POLY_CHG 0
M  POLY_PROPERTIES PROTEIN POLYMER ALPHA_AA ALIPHATIC
M  END

$$$$
DHA_new
     RDKit          3D

 20 19  0  0  0  0  0  0  0  0999 V2000
    2.6713   -1.0483    2.5913 C   0  0  0  0  0  0  0  0  0  0  0  0
    1.6996   -0.2237    1.8766 N   0  0  0  0  0  0  0  0  0  0  0  0
    0.5615   -0.8308    1.3098 C   0  0  0  0  0  0  0  0  0  0  0  0
    0.3848   -2.0635    1.4173 O   0  0  0  0  0  0  0  0  0  0  0  0
   -0.4852   -0.0615    0.5603 C   0  0  0  0  0  0  0  0  0  0  0  0
   -0.3575    1.2218    0.4150 C   0  0  0  0  0  0  0  0  0  0  0  0
   -1.5870   -0.7719    0.0326 N   0  0  0  0  0  0  0  0  0  0  0  0
   -2.6326   -0.2079   -0.6809 C   0  0  0  0  0  0  0  0  0  0  0  0
   -3.7288   -1.1603   -1.1637 C   0  0  0  0  0  0  0  0  0  0  0  0
   -2.7627    0.9891   -0.9634 O   0  0  0  0  0  0  0  0  0  0  0  0
    2.2658   -1.3263    3.5828 H   0  0  0  0  0  0  0  0  0  0  0  0
    2.8424   -1.9896    2.0308 H   0  0  0  0  0  0  0  0  0  0  0  0
    3.6502   -0.5517    2.6839 H   0  0  0  0  0  0  0  0  0  0  0  0
    1.9170    0.7800    1.8324 H   0  0  0  0  0  0  0  0  0  0  0  0
    0.5118    1.7323    0.8400 H   0  0  0  0  0  0  0  0  0  0  0  0
   -1.0410    1.8405   -0.0944 H   0  0  0  0  0  0  0  0  0  0  0  0
   -1.6329   -1.8415    0.1894 H   0  0  0  0  0  0  0  0  0  0  0  0
   -4.3743   -1.3078   -0.2828 H   0  0  0  0  0  0  0  0  0  0  0  0
   -3.2436   -2.1204   -1.4163 H   0  0  0  0  0  0  0  0  0  0  0  0
   -4.2654   -0.7108   -2.0198 H   0  0  0  0  0  0  0  0  0  0  0  0
  1  2  1  0
  1 11  1  0
  1 12  1  0
  1 13  1  0
  2  3  1  0
  2 14  1  0
  3  4  2  0
  3  5  1  0
  5  6  2  3
  5  7  1  0
  6 15  1  0
  6 16  1  0
  7  8  1  0
  7 17  1  0
  8  9  1  0
  8 10  2  0
  9 18  1  0
  9 19  1  0
  9 20  1  0
M  END

> <RosettaParamsInstructions>
M  ROOT 7
M  POLY_N_BB 7
M  POLY_CA_BB 5
M  POLY_C_BB 3
M  POLY_O_BB 4
M  POLY_IGNORE 1 10 9 14 11 12 13 18 19 20
M  POLY_UPPER 2
M  POLY_LOWER 8
M  POLY_CHG 0
M  POLY_PROPERTIES PROTEIN POLYMER ALPHA_AA ALIPHATIC
M  END

$$$$
DHA_new
     RDKit          3D

 20 19  0  0  0  0  0  0  0  0999 V2000
    2.6449   -1.0852    2.5728 C   0  0  0  0  0  0  0  0  0  0  0  0
    1.6820   -0.2189    1.8599 N   0  0  0  0  0  0  0  0  0  0  0  0
    0.5652   -0.8352    1.3083 C   0  0  0  0  0  0  0  0  0  0  0  0
    0.3776   -2.0829    1.4099 O   0  0  0  0  0  0  0  0  0  0  0  0
   -0.4626   -0.0693    0.5743 C   0  0  0  0  0  0  0  0  0  0  0  0
   -0.2930    1.2291    0.4535 C   0  0  0  0  0  0  0  0  0  0  0  0
   -1.5697   -0.7843    0.0452 N   0  0  0  0  0  0  0  0  0  0  0  0
   -2.6366   -0.2520   -0.6721 C   0  0  0  0  0  0  0  0  0  0  0  0
   -3.7310   -1.1640   -1.1604 C   0  0  0  0  0  0  0  0  0  0  0  0
   -2.7780    0.9426   -0.9580 O   0  0  0  0  0  0  0  0  0  0  0  0
    2.4284   -2.1444    2.4267 H   0  0  0  0  0  0  0  0  0  0  0  0
    3.6393   -0.7765    2.1737 H   0  0  0  0  0  0  0  0  0  0  0  0
    2.6336   -0.8359    3.6514 H   0  0  0  0  0  0  0  0  0  0  0  0
    1.9107    0.7726    1.8260 H   0  0  0  0  0  0  0  0  0  0  0  0
    0.5668    1.7239    0.8747 H   0  0  0  0  0  0  0  0  0  0  0  0
   -1.0063    1.8421   -0.0697 H   0  0  0  0  0  0  0  0  0  0  0  0
   -1.5793   -1.8419    0.2191 H   0  0  0  0  0  0  0  0  0  0  0  0
   -4.6905   -0.6301   -0.9267 H   0  0  0  0  0  0  0  0  0  0  0  0
   -3.6406   -2.1109   -0.6266 H   0  0  0  0  0  0  0  0  0  0  0  0
   -3.6673   -1.3310   -2.2411 H   0  0  0  0  0  0  0  0  0  0  0  0
  1  2  1  0
  1 11  1  0
  1 12  1  0
  1 13  1  0
  2  3  1  0
  2 14  1  0
  3  4  2  0
  3  5  1  0
  5  6  2  3
  5  7  1  0
  6 15  1  0
  6 16  1  0
  7  8  1  0
  7 17  1  0
  8  9  1  0
  8 10  2  0
  9 18  1  0
  9 19  1  0
  9 20  1  0
M  END

> <RosettaParamsInstructions>
M  ROOT 7
M  POLY_N_BB 7
M  POLY_CA_BB 5
M  POLY_C_BB 3
M  POLY_O_BB 4
M  POLY_IGNORE 1 10 9 14 11 12 13 18 19 20
M  POLY_UPPER 2
M  POLY_LOWER 8
M  POLY_CHG 0
M  POLY_PROPERTIES PROTEIN POLYMER ALPHA_AA ALIPHATIC
M  END

$$$$
DHA_new
     RDKit          3D

 20 19  0  0  0  0  0  0  0  0999 V2000
    2.6719   -1.1086    2.5631 C   0  0  0  0  0  0  0  0  0  0  0  0
    1.6831   -0.2702    1.9147 N   0  0  0  0  0  0  0  0  0  0  0  0
    0.5526   -0.8006    1.2758 C   0  0  0  0  0  0  0  0  0  0  0  0
    0.4386   -2.0696    1.2950 O   0  0  0  0  0  0  0  0  0  0  0  0
   -0.4924   -0.0165    0.5975 C   0  0  0  0  0  0  0  0  0  0  0  0
   -0.4104    1.2980    0.5560 C   0  0  0  0  0  0  0  0  0  0  0  0
   -1.5623   -0.7594    0.0096 N   0  0  0  0  0  0  0  0  0  0  0  0
   -2.6463   -0.2098   -0.6757 C   0  0  0  0  0  0  0  0  0  0  0  0
   -3.6820   -1.1684   -1.2282 C   0  0  0  0  0  0  0  0  0  0  0  0
   -2.8788    0.9901   -0.8972 O   0  0  0  0  0  0  0  0  0  0  0  0
    2.4545   -1.1393    3.6537 H   0  0  0  0  0  0  0  0  0  0  0  0
    3.6731   -0.6232    2.4683 H   0  0  0  0  0  0  0  0  0  0  0  0
    2.6678   -2.1219    2.1103 H   0  0  0  0  0  0  0  0  0  0  0  0
    1.8414    0.7511    1.9390 H   0  0  0  0  0  0  0  0  0  0  0  0
    0.4413    1.7716    1.0322 H   0  0  0  0  0  0  0  0  0  0  0  0
   -1.1249    1.9342    0.0854 H   0  0  0  0  0  0  0  0  0  0  0  0
   -1.5190   -1.8219    0.1086 H   0  0  0  0  0  0  0  0  0  0  0  0
   -3.0924   -2.0396   -1.6071 H   0  0  0  0  0  0  0  0  0  0  0  0
   -4.2819   -0.7073   -2.0227 H   0  0  0  0  0  0  0  0  0  0  0  0
   -4.3404   -1.5408   -0.4374 H   0  0  0  0  0  0  0  0  0  0  0  0
  1  2  1  0
  1 11  1  0
  1 12  1  0
  1 13  1  0
  2  3  1  0
  2 14  1  0
  3  4  2  0
  3  5  1  0
  5  6  2  3
  5  7  1  0
  6 15  1  0
  6 16  1  0
  7  8  1  0
  7 17  1  0
  8  9  1  0
  8 10  2  0
  9 18  1  0
  9 19  1  0
  9 20  1  0
M  END

> <RosettaParamsInstructions>
M  ROOT 7
M  POLY_N_BB 7
M  POLY_CA_BB 5
M  POLY_C_BB 3
M  POLY_O_BB 4
M  POLY_IGNORE 1 10 9 14 11 12 13 18 19 20
M  POLY_UPPER 2
M  POLY_LOWER 8
M  POLY_CHG 0
M  POLY_PROPERTIES PROTEIN POLYMER ALPHA_AA ALIPHATIC
M  END

$$$$
DHA_new
     RDKit          3D

 20 19  0  0  0  0  0  0  0  0999 V2000
    2.5993   -1.0637    2.6661 C   0  0  0  0  0  0  0  0  0  0  0  0
    1.6613   -0.2003    1.9175 N   0  0  0  0  0  0  0  0  0  0  0  0
    0.5429   -0.8013    1.3378 C   0  0  0  0  0  0  0  0  0  0  0  0
    0.3696   -2.0434    1.4683 O   0  0  0  0  0  0  0  0  0  0  0  0
   -0.4368   -0.0319    0.5813 C   0  0  0  0  0  0  0  0  0  0  0  0
   -0.2827    1.2521    0.4309 C   0  0  0  0  0  0  0  0  0  0  0  0
   -1.5265   -0.7395    0.0398 N   0  0  0  0  0  0  0  0  0  0  0  0
   -2.6041   -0.2672   -0.7205 C   0  0  0  0  0  0  0  0  0  0  0  0
   -3.6820   -1.1929   -1.2129 C   0  0  0  0  0  0  0  0  0  0  0  0
   -2.7182    0.9331   -1.0215 O   0  0  0  0  0  0  0  0  0  0  0  0
    2.2429   -1.1843    3.7038 H   0  0  0  0  0  0  0  0  0  0  0  0
    3.6123   -0.6337    2.5891 H   0  0  0  0  0  0  0  0  0  0  0  0
    2.6015   -2.0459    2.1580 H   0  0  0  0  0  0  0  0  0  0  0  0
    1.8779    0.8069    1.8589 H   0  0  0  0  0  0  0  0  0  0  0  0
   -0.9763    1.8732   -0.1193 H   0  0  0  0  0  0  0  0  0  0  0  0
    0.5796    1.7963    0.8624 H   0  0  0  0  0  0  0  0  0  0  0  0
   -1.5657   -1.8065    0.2201 H   0  0  0  0  0  0  0  0  0  0  0  0
   -3.6294   -1.2791   -2.3351 H   0  0  0  0  0  0  0  0  0  0  0  0
   -3.5858   -2.2026   -0.7640 H   0  0  0  0  0  0  0  0  0  0  0  0
   -4.6864   -0.8215   -0.9198 H   0  0  0  0  0  0  0  0  0  0  0  0
  1  2  1  0
  1 11  1  0
  1 12  1  0
  1 13  1  0
  2  3  1  0
  2 14  1  0
  3  4  2  0
  3  5  1  0
  5  6  2  3
  5  7  1  0
  6 15  1  0
  6 16  1  0
  7  8  1  0
  7 17  1  0
  8  9  1  0
  8 10  2  0
  9 18  1  0
  9 19  1  0
  9 20  1  0
M  END

> <RosettaParamsInstructions>
M  ROOT 7
M  POLY_N_BB 7
M  POLY_CA_BB 5
M  POLY_C_BB 3
M  POLY_O_BB 4
M  POLY_IGNORE 1 10 9 14 11 12 13 18 19 20
M  POLY_UPPER 2
M  POLY_LOWER 8
M  POLY_CHG 0
M  POLY_PROPERTIES PROTEIN POLYMER ALPHA_AA ALIPHATIC
M  END

$$$$
DHA_new
     RDKit          3D

 20 19  0  0  0  0  0  0  0  0999 V2000
    2.6926   -1.0639    2.5934 C   0  0  0  0  0  0  0  0  0  0  0  0
    1.7145   -0.2691    1.8750 N   0  0  0  0  0  0  0  0  0  0  0  0
    0.5483   -0.8063    1.3041 C   0  0  0  0  0  0  0  0  0  0  0  0
    0.4036   -2.0710    1.4639 O   0  0  0  0  0  0  0  0  0  0  0  0
   -0.4744   -0.0729    0.5716 C   0  0  0  0  0  0  0  0  0  0  0  0
   -0.3468    1.2135    0.3977 C   0  0  0  0  0  0  0  0  0  0  0  0
   -1.5815   -0.7791    0.0674 N   0  0  0  0  0  0  0  0  0  0  0  0
   -2.6688   -0.2539   -0.6623 C   0  0  0  0  0  0  0  0  0  0  0  0
   -3.7868   -1.1490   -1.1364 C   0  0  0  0  0  0  0  0  0  0  0  0
   -2.7979    0.9367   -0.9661 O   0  0  0  0  0  0  0  0  0  0  0  0
    3.7140   -0.7208    2.3349 H   0  0  0  0  0  0  0  0  0  0  0  0
    2.6256   -2.1302    2.3207 H   0  0  0  0  0  0  0  0  0  0  0  0
    2.5883   -0.9159    3.7048 H   0  0  0  0  0  0  0  0  0  0  0  0
    1.9169    0.7394    1.7980 H   0  0  0  0  0  0  0  0  0  0  0  0
   -1.0299    1.8746   -0.1244 H   0  0  0  0  0  0  0  0  0  0  0  0
    0.5464    1.7259    0.8156 H   0  0  0  0  0  0  0  0  0  0  0  0
   -1.6162   -1.8427    0.2522 H   0  0  0  0  0  0  0  0  0  0  0  0
   -3.4433   -2.1852   -1.0143 H   0  0  0  0  0  0  0  0  0  0  0  0
   -3.8823   -0.9442   -2.2241 H   0  0  0  0  0  0  0  0  0  0  0  0
   -4.7287   -0.9381   -0.6307 H   0  0  0  0  0  0  0  0  0  0  0  0
  1  2  1  0
  1 11  1  0
  1 12  1  0
  1 13  1  0
  2  3  1  0
  2 14  1  0
  3  4  2  0
  3  5  1  0
  5  6  2  3
  5  7  1  0
  6 15  1  0
  6 16  1  0
  7  8  1  0
  7 17  1  0
  8  9  1  0
  8 10  2  0
  9 18  1  0
  9 19  1  0
  9 20  1  0
M  END

> <RosettaParamsInstructions>
M  ROOT 7
M  POLY_N_BB 7
M  POLY_CA_BB 5
M  POLY_C_BB 3
M  POLY_O_BB 4
M  POLY_IGNORE 1 10 9 14 11 12 13 18 19 20
M  POLY_UPPER 2
M  POLY_LOWER 8
M  POLY_CHG 0
M  POLY_PROPERTIES PROTEIN POLYMER ALPHA_AA ALIPHATIC
M  END

$$$$
DHA_new
     RDKit          3D

 20 19  0  0  0  0  0  0  0  0999 V2000
    2.6573   -1.0519    2.5650 C   0  0  0  0  0  0  0  0  0  0  0  0
    1.6480   -0.2153    1.8879 N   0  0  0  0  0  0  0  0  0  0  0  0
    0.5538   -0.8224    1.2838 C   0  0  0  0  0  0  0  0  0  0  0  0
    0.4491   -2.0887    1.3297 O   0  0  0  0  0  0  0  0  0  0  0  0
   -0.4766   -0.0403    0.5988 C   0  0  0  0  0  0  0  0  0  0  0  0
   -0.3380    1.2667    0.5699 C   0  0  0  0  0  0  0  0  0  0  0  0
   -1.5634   -0.7506    0.0080 N   0  0  0  0  0  0  0  0  0  0  0  0
   -2.6475   -0.2270   -0.6870 C   0  0  0  0  0  0  0  0  0  0  0  0
   -3.6694   -1.1932   -1.2171 C   0  0  0  0  0  0  0  0  0  0  0  0
   -2.8428    0.9752   -0.9073 O   0  0  0  0  0  0  0  0  0  0  0  0
    2.2116   -1.3236    3.5319 H   0  0  0  0  0  0  0  0  0  0  0  0
    3.6297   -0.5605    2.6177 H   0  0  0  0  0  0  0  0  0  0  0  0
    2.7905   -1.9940    1.9890 H   0  0  0  0  0  0  0  0  0  0  0  0
    1.8403    0.7855    1.9174 H   0  0  0  0  0  0  0  0  0  0  0  0
   -1.0947    1.8507    0.0660 H   0  0  0  0  0  0  0  0  0  0  0  0
    0.4881    1.8065    1.0190 H   0  0  0  0  0  0  0  0  0  0  0  0
   -1.5140   -1.8168    0.1290 H   0  0  0  0  0  0  0  0  0  0  0  0
   -3.3757   -1.4962   -2.2223 H   0  0  0  0  0  0  0  0  0  0  0  0
   -4.6493   -0.6962   -1.2014 H   0  0  0  0  0  0  0  0  0  0  0  0
   -3.7035   -2.0600   -0.5370 H   0  0  0  0  0  0  0  0  0  0  0  0
  1  2  1  0
  1 11  1  0
  1 12  1  0
  1 13  1  0
  2  3  1  0
  2 14  1  0
  3  4  2  0
  3  5  1  0
  5  6  2  3
  5  7  1  0
  6 15  1  0
  6 16  1  0
  7  8  1  0
  7 17  1  0
  8  9  1  0
  8 10  2  0
  9 18  1  0
  9 19  1  0
  9 20  1  0
M  END

> <RosettaParamsInstructions>
M  ROOT 7
M  POLY_N_BB 7
M  POLY_CA_BB 5
M  POLY_C_BB 3
M  POLY_O_BB 4
M  POLY_IGNORE 1 10 9 14 11 12 13 18 19 20
M  POLY_UPPER 2
M  POLY_LOWER 8
M  POLY_CHG 0
M  POLY_PROPERTIES PROTEIN POLYMER ALPHA_AA ALIPHATIC
M  END

$$$$
DHA_new
     RDKit          3D

 20 19  0  0  0  0  0  0  0  0999 V2000
    2.6751   -1.0769    2.6063 C   0  0  0  0  0  0  0  0  0  0  0  0
    1.7345   -0.2508    1.8359 N   0  0  0  0  0  0  0  0  0  0  0  0
    0.5564   -0.8118    1.3241 C   0  0  0  0  0  0  0  0  0  0  0  0
    0.3415   -2.0359    1.5493 O   0  0  0  0  0  0  0  0  0  0  0  0
   -0.4540   -0.0644    0.5364 C   0  0  0  0  0  0  0  0  0  0  0  0
   -0.2875    1.2034    0.2713 C   0  0  0  0  0  0  0  0  0  0  0  0
   -1.5783   -0.7765    0.0981 N   0  0  0  0  0  0  0  0  0  0  0  0
   -2.6218   -0.2297   -0.6516 C   0  0  0  0  0  0  0  0  0  0  0  0
   -3.7708   -1.1261   -1.0516 C   0  0  0  0  0  0  0  0  0  0  0  0
   -2.7445    0.9484   -1.0560 O   0  0  0  0  0  0  0  0  0  0  0  0
    2.9627   -1.9542    1.9667 H   0  0  0  0  0  0  0  0  0  0  0  0
    2.1978   -1.3950    3.5543 H   0  0  0  0  0  0  0  0  0  0  0  0
    3.5859   -0.5106    2.8474 H   0  0  0  0  0  0  0  0  0  0  0  0
    1.9682    0.7315    1.6901 H   0  0  0  0  0  0  0  0  0  0  0  0
   -0.9391    1.8338   -0.2789 H   0  0  0  0  0  0  0  0  0  0  0  0
    0.6170    1.7219    0.6393 H   0  0  0  0  0  0  0  0  0  0  0  0
   -1.6733   -1.8159    0.3391 H   0  0  0  0  0  0  0  0  0  0  0  0
   -4.6680   -0.9096   -0.4372 H   0  0  0  0  0  0  0  0  0  0  0  0
   -3.4798   -2.1774   -0.9243 H   0  0  0  0  0  0  0  0  0  0  0  0
   -4.0284   -0.9564   -2.1180 H   0  0  0  0  0  0  0  0  0  0  0  0
  1  2  1  0
  1 11  1  0
  1 12  1  0
  1 13  1  0
  2  3  1  0
  2 14  1  0
  3  4  2  0
  3  5  1  0
  5  6  2  3
  5  7  1  0
  6 15  1  0
  6 16  1  0
  7  8  1  0
  7 17  1  0
  8  9  1  0
  8 10  2  0
  9 18  1  0
  9 19  1  0
  9 20  1  0
M  END

> <RosettaParamsInstructions>
M  ROOT 7
M  POLY_N_BB 7
M  POLY_CA_BB 5
M  POLY_C_BB 3
M  POLY_O_BB 4
M  POLY_IGNORE 1 10 9 14 11 12 13 18 19 20
M  POLY_UPPER 2
M  POLY_LOWER 8
M  POLY_CHG 0
M  POLY_PROPERTIES PROTEIN POLYMER ALPHA_AA ALIPHATIC
M  END

$$$$
DHA_new
     RDKit          3D

 20 19  0  0  0  0  0  0  0  0999 V2000
    2.6869   -1.0580    2.5816 C   0  0  0  0  0  0  0  0  0  0  0  0
    1.7050   -0.2577    1.8793 N   0  0  0  0  0  0  0  0  0  0  0  0
    0.5521   -0.8093    1.2927 C   0  0  0  0  0  0  0  0  0  0  0  0
    0.4113   -2.0591    1.4097 O   0  0  0  0  0  0  0  0  0  0  0  0
   -0.4815   -0.0723    0.5702 C   0  0  0  0  0  0  0  0  0  0  0  0
   -0.3794    1.2199    0.4238 C   0  0  0  0  0  0  0  0  0  0  0  0
   -1.5667   -0.8011    0.0515 N   0  0  0  0  0  0  0  0  0  0  0  0
   -2.6244   -0.2302   -0.6585 C   0  0  0  0  0  0  0  0  0  0  0  0
   -3.7268   -1.1631   -1.1546 C   0  0  0  0  0  0  0  0  0  0  0  0
   -2.8009    0.9593   -0.9516 O   0  0  0  0  0  0  0  0  0  0  0  0
    3.3443   -1.5706    1.8432 H   0  0  0  0  0  0  0  0  0  0  0  0
    3.3021   -0.4348    3.2449 H   0  0  0  0  0  0  0  0  0  0  0  0
    2.2092   -1.8291    3.2270 H   0  0  0  0  0  0  0  0  0  0  0  0
    1.8754    0.7604    1.8165 H   0  0  0  0  0  0  0  0  0  0  0  0
    0.4929    1.7695    0.8465 H   0  0  0  0  0  0  0  0  0  0  0  0
   -1.0584    1.8619   -0.0760 H   0  0  0  0  0  0  0  0  0  0  0  0
   -1.6026   -1.8633    0.2000 H   0  0  0  0  0  0  0  0  0  0  0  0
   -3.4209   -2.2104   -1.0305 H   0  0  0  0  0  0  0  0  0  0  0  0
   -3.8750   -0.8912   -2.2142 H   0  0  0  0  0  0  0  0  0  0  0  0
   -4.6488   -0.9733   -0.5605 H   0  0  0  0  0  0  0  0  0  0  0  0
  1  2  1  0
  1 11  1  0
  1 12  1  0
  1 13  1  0
  2  3  1  0
  2 14  1  0
  3  4  2  0
  3  5  1  0
  5  6  2  3
  5  7  1  0
  6 15  1  0
  6 16  1  0
  7  8  1  0
  7 17  1  0
  8  9  1  0
  8 10  2  0
  9 18  1  0
  9 19  1  0
  9 20  1  0
M  END

> <RosettaParamsInstructions>
M  ROOT 7
M  POLY_N_BB 7
M  POLY_CA_BB 5
M  POLY_C_BB 3
M  POLY_O_BB 4
M  POLY_IGNORE 1 10 9 14 11 12 13 18 19 20
M  POLY_UPPER 2
M  POLY_LOWER 8
M  POLY_CHG 0
M  POLY_PROPERTIES PROTEIN POLYMER ALPHA_AA ALIPHATIC
M  END

$$$$
DHA_new
     RDKit          3D

 20 19  0  0  0  0  0  0  0  0999 V2000
    2.6117   -1.0501    2.6438 C   0  0  0  0  0  0  0  0  0  0  0  0
    1.6365   -0.2215    1.9116 N   0  0  0  0  0  0  0  0  0  0  0  0
    0.5401   -0.8329    1.3299 C   0  0  0  0  0  0  0  0  0  0  0  0
    0.3599   -2.0911    1.4156 O   0  0  0  0  0  0  0  0  0  0  0  0
   -0.4737   -0.0760    0.5850 C   0  0  0  0  0  0  0  0  0  0  0  0
   -0.3356    1.2306    0.4657 C   0  0  0  0  0  0  0  0  0  0  0  0
   -1.5549   -0.7962    0.0297 N   0  0  0  0  0  0  0  0  0  0  0  0
   -2.5987   -0.2396   -0.7023 C   0  0  0  0  0  0  0  0  0  0  0  0
   -3.6690   -1.1864   -1.2153 C   0  0  0  0  0  0  0  0  0  0  0  0
   -2.7400    0.9707   -0.9791 O   0  0  0  0  0  0  0  0  0  0  0  0
    2.4760   -0.8743    3.7267 H   0  0  0  0  0  0  0  0  0  0  0  0
    3.6216   -0.7484    2.2888 H   0  0  0  0  0  0  0  0  0  0  0  0
    2.4713   -2.1232    2.3865 H   0  0  0  0  0  0  0  0  0  0  0  0
    1.8246    0.7815    1.8707 H   0  0  0  0  0  0  0  0  0  0  0  0
    0.5254    1.7632    0.9143 H   0  0  0  0  0  0  0  0  0  0  0  0
   -1.0221    1.8788   -0.0599 H   0  0  0  0  0  0  0  0  0  0  0  0
   -1.5835   -1.8532    0.1776 H   0  0  0  0  0  0  0  0  0  0  0  0
   -4.0588   -0.7947   -2.1821 H   0  0  0  0  0  0  0  0  0  0  0  0
   -3.1959   -2.1484   -1.4212 H   0  0  0  0  0  0  0  0  0  0  0  0
   -4.4413   -1.2414   -0.4451 H   0  0  0  0  0  0  0  0  0  0  0  0
  1  2  1  0
  1 11  1  0
  1 12  1  0
  1 13  1  0
  2  3  1  0
  2 14  1  0
  3  4  2  0
  3  5  1  0
  5  6  2  3
  5  7  1  0
  6 15  1  0
  6 16  1  0
  7  8  1  0
  7 17  1  0
  8  9  1  0
  8 10  2  0
  9 18  1  0
  9 19  1  0
  9 20  1  0
M  END

> <RosettaParamsInstructions>
M  ROOT 7
M  POLY_N_BB 7
M  POLY_CA_BB 5
M  POLY_C_BB 3
M  POLY_O_BB 4
M  POLY_IGNORE 1 10 9 14 11 12 13 18 19 20
M  POLY_UPPER 2
M  POLY_LOWER 8
M  POLY_CHG 0
M  POLY_PROPERTIES PROTEIN POLYMER ALPHA_AA ALIPHATIC
M  END

$$$$
DHA_new
     RDKit          3D

 20 19  0  0  0  0  0  0  0  0999 V2000
    2.6696   -1.0910    2.5873 C   0  0  0  0  0  0  0  0  0  0  0  0
    1.6840   -0.2432    1.8701 N   0  0  0  0  0  0  0  0  0  0  0  0
    0.5601   -0.8225    1.2986 C   0  0  0  0  0  0  0  0  0  0  0  0
    0.3933   -2.0768    1.4002 O   0  0  0  0  0  0  0  0  0  0  0  0
   -0.4445   -0.0476    0.5817 C   0  0  0  0  0  0  0  0  0  0  0  0
   -0.3272    1.2623    0.4421 C   0  0  0  0  0  0  0  0  0  0  0  0
   -1.5535   -0.7650    0.0411 N   0  0  0  0  0  0  0  0  0  0  0  0
   -2.6338   -0.2592   -0.6776 C   0  0  0  0  0  0  0  0  0  0  0  0
   -3.7258   -1.1584   -1.1792 C   0  0  0  0  0  0  0  0  0  0  0  0
   -2.7909    0.9497   -0.9632 O   0  0  0  0  0  0  0  0  0  0  0  0
    2.5577   -2.1399    2.2955 H   0  0  0  0  0  0  0  0  0  0  0  0
    3.6764   -0.7109    2.3081 H   0  0  0  0  0  0  0  0  0  0  0  0
    2.4801   -0.9927    3.6614 H   0  0  0  0  0  0  0  0  0  0  0  0
    1.8868    0.7769    1.8272 H   0  0  0  0  0  0  0  0  0  0  0  0
   -1.0163    1.9050   -0.0674 H   0  0  0  0  0  0  0  0  0  0  0  0
    0.5291    1.7523    0.8697 H   0  0  0  0  0  0  0  0  0  0  0  0
   -1.5403   -1.8155    0.2165 H   0  0  0  0  0  0  0  0  0  0  0  0
   -3.7336   -1.2500   -2.2652 H   0  0  0  0  0  0  0  0  0  0  0  0
   -4.6812   -0.7576   -0.7918 H   0  0  0  0  0  0  0  0  0  0  0  0
   -3.5967   -2.1680   -0.7142 H   0  0  0  0  0  0  0  0  0  0  0  0
  1  2  1  0
  1 11  1  0
  1 12  1  0
  1 13  1  0
  2  3  1  0
  2 14  1  0
  3  4  2  0
  3  5  1  0
  5  6  2  3
  5  7  1  0
  6 15  1  0
  6 16  1  0
  7  8  1  0
  7 17  1  0
  8  9  1  0
  8 10  2  0
  9 18  1  0
  9 19  1  0
  9 20  1  0
M  END

> <RosettaParamsInstructions>
M  ROOT 7
M  POLY_N_BB 7
M  POLY_CA_BB 5
M  POLY_C_BB 3
M  POLY_O_BB 4
M  POLY_IGNORE 1 10 9 14 11 12 13 18 19 20
M  POLY_UPPER 2
M  POLY_LOWER 8
M  POLY_CHG 0
M  POLY_PROPERTIES PROTEIN POLYMER ALPHA_AA ALIPHATIC
M  END

$$$$
DHA_new
     RDKit          3D

 20 19  0  0  0  0  0  0  0  0999 V2000
    2.6618   -1.0664    2.6025 C   0  0  0  0  0  0  0  0  0  0  0  0
    1.6980   -0.2118    1.8831 N   0  0  0  0  0  0  0  0  0  0  0  0
    0.5734   -0.8045    1.3199 C   0  0  0  0  0  0  0  0  0  0  0  0
    0.4032   -2.0486    1.4353 O   0  0  0  0  0  0  0  0  0  0  0  0
   -0.4710   -0.0617    0.5720 C   0  0  0  0  0  0  0  0  0  0  0  0
   -0.3190    1.2272    0.4381 C   0  0  0  0  0  0  0  0  0  0  0  0
   -1.5754   -0.7774    0.0422 N   0  0  0  0  0  0  0  0  0  0  0  0
   -2.6238   -0.2217   -0.6755 C   0  0  0  0  0  0  0  0  0  0  0  0
   -3.7175   -1.1509   -1.1618 C   0  0  0  0  0  0  0  0  0  0  0  0
   -2.7756    0.9763   -0.9736 O   0  0  0  0  0  0  0  0  0  0  0  0
    2.2284   -1.4135    3.5708 H   0  0  0  0  0  0  0  0  0  0  0  0
    2.8348   -1.9284    1.9124 H   0  0  0  0  0  0  0  0  0  0  0  0
    3.6109   -0.5318    2.7132 H   0  0  0  0  0  0  0  0  0  0  0  0
    1.8881    0.7877    1.8221 H   0  0  0  0  0  0  0  0  0  0  0  0
    0.5281    1.7260    0.8532 H   0  0  0  0  0  0  0  0  0  0  0  0
   -1.0328    1.8224   -0.0882 H   0  0  0  0  0  0  0  0  0  0  0  0
   -1.5833   -1.8460    0.2233 H   0  0  0  0  0  0  0  0  0  0  0  0
   -4.4501   -1.1964   -0.3380 H   0  0  0  0  0  0  0  0  0  0  0  0
   -3.3271   -2.1658   -1.3261 H   0  0  0  0  0  0  0  0  0  0  0  0
   -4.1573   -0.7668   -2.0840 H   0  0  0  0  0  0  0  0  0  0  0  0
  1  2  1  0
  1 11  1  0
  1 12  1  0
  1 13  1  0
  2  3  1  0
  2 14  1  0
  3  4  2  0
  3  5  1  0
  5  6  2  3
  5  7  1  0
  6 15  1  0
  6 16  1  0
  7  8  1  0
  7 17  1  0
  8  9  1  0
  8 10  2  0
  9 18  1  0
  9 19  1  0
  9 20  1  0
M  END

> <RosettaParamsInstructions>
M  ROOT 7
M  POLY_N_BB 7
M  POLY_CA_BB 5
M  POLY_C_BB 3
M  POLY_O_BB 4
M  POLY_IGNORE 1 10 9 14 11 12 13 18 19 20
M  POLY_UPPER 2
M  POLY_LOWER 8
M  POLY_CHG 0
M  POLY_PROPERTIES PROTEIN POLYMER ALPHA_AA ALIPHATIC
M  END

$$$$
DHA_new
     RDKit          3D

 20 19  0  0  0  0  0  0  0  0999 V2000
    2.6651   -1.0348    2.5635 C   0  0  0  0  0  0  0  0  0  0  0  0
    1.6800   -0.2238    1.8523 N   0  0  0  0  0  0  0  0  0  0  0  0
    0.5661   -0.8341    1.3068 C   0  0  0  0  0  0  0  0  0  0  0  0
    0.4060   -2.0961    1.4273 O   0  0  0  0  0  0  0  0  0  0  0  0
   -0.4581   -0.0735    0.5813 C   0  0  0  0  0  0  0  0  0  0  0  0
   -0.3231    1.2127    0.4421 C   0  0  0  0  0  0  0  0  0  0  0  0
   -1.5457   -0.8069    0.0719 N   0  0  0  0  0  0  0  0  0  0  0  0
   -2.6148   -0.2598   -0.6436 C   0  0  0  0  0  0  0  0  0  0  0  0
   -3.7373   -1.1453   -1.1474 C   0  0  0  0  0  0  0  0  0  0  0  0
   -2.7671    0.9497   -0.9373 O   0  0  0  0  0  0  0  0  0  0  0  0
    2.3342   -1.1394    3.6340 H   0  0  0  0  0  0  0  0  0  0  0  0
    2.6403   -2.0488    2.1203 H   0  0  0  0  0  0  0  0  0  0  0  0
    3.6727   -0.5764    2.4898 H   0  0  0  0  0  0  0  0  0  0  0  0
    1.8834    0.7755    1.8015 H   0  0  0  0  0  0  0  0  0  0  0  0
    0.5430    1.7375    0.8576 H   0  0  0  0  0  0  0  0  0  0  0  0
   -1.0241    1.8509   -0.0744 H   0  0  0  0  0  0  0  0  0  0  0  0
   -1.5955   -1.8695    0.2230 H   0  0  0  0  0  0  0  0  0  0  0  0
   -3.7656   -2.0537   -0.5373 H   0  0  0  0  0  0  0  0  0  0  0  0
   -3.4618   -1.3869   -2.1923 H   0  0  0  0  0  0  0  0  0  0  0  0
   -4.7042   -0.6295   -1.0985 H   0  0  0  0  0  0  0  0  0  0  0  0
  1  2  1  0
  1 11  1  0
  1 12  1  0
  1 13  1  0
  2  3  1  0
  2 14  1  0
  3  4  2  0
  3  5  1  0
  5  6  2  3
  5  7  1  0
  6 15  1  0
  6 16  1  0
  7  8  1  0
  7 17  1  0
  8  9  1  0
  8 10  2  0
  9 18  1  0
  9 19  1  0
  9 20  1  0
M  END

> <RosettaParamsInstructions>
M  ROOT 7
M  POLY_N_BB 7
M  POLY_CA_BB 5
M  POLY_C_BB 3
M  POLY_O_BB 4
M  POLY_IGNORE 1 10 9 14 11 12 13 18 19 20
M  POLY_UPPER 2
M  POLY_LOWER 8
M  POLY_CHG 0
M  POLY_PROPERTIES PROTEIN POLYMER ALPHA_AA ALIPHATIC
M  END

$$$$
DHA_new
     RDKit          3D

 20 19  0  0  0  0  0  0  0  0999 V2000
    2.6920   -1.0371    2.5995 C   0  0  0  0  0  0  0  0  0  0  0  0
    1.6728   -0.2508    1.8680 N   0  0  0  0  0  0  0  0  0  0  0  0
    0.5584   -0.8519    1.3135 C   0  0  0  0  0  0  0  0  0  0  0  0
    0.4122   -2.1105    1.4387 O   0  0  0  0  0  0  0  0  0  0  0  0
   -0.4625   -0.0879    0.5847 C   0  0  0  0  0  0  0  0  0  0  0  0
   -0.3007    1.2038    0.4630 C   0  0  0  0  0  0  0  0  0  0  0  0
   -1.5822   -0.7567    0.0384 N   0  0  0  0  0  0  0  0  0  0  0  0
   -2.6613   -0.2230   -0.6859 C   0  0  0  0  0  0  0  0  0  0  0  0
   -3.7343   -1.1589   -1.1599 C   0  0  0  0  0  0  0  0  0  0  0  0
   -2.7690    0.9823   -0.9516 O   0  0  0  0  0  0  0  0  0  0  0  0
    3.7053   -0.6309    2.3507 H   0  0  0  0  0  0  0  0  0  0  0  0
    2.4843   -1.0148    3.6701 H   0  0  0  0  0  0  0  0  0  0  0  0
    2.5953   -2.0670    2.2174 H   0  0  0  0  0  0  0  0  0  0  0  0
    1.8776    0.7487    1.8207 H   0  0  0  0  0  0  0  0  0  0  0  0
   -1.0081    1.8468   -0.0610 H   0  0  0  0  0  0  0  0  0  0  0  0
    0.5622    1.7439    0.8799 H   0  0  0  0  0  0  0  0  0  0  0  0
   -1.5701   -1.8284    0.2254 H   0  0  0  0  0  0  0  0  0  0  0  0
   -4.1450   -0.7930   -2.1161 H   0  0  0  0  0  0  0  0  0  0  0  0
   -4.5740   -1.1966   -0.4386 H   0  0  0  0  0  0  0  0  0  0  0  0
   -3.3595   -2.1702   -1.3159 H   0  0  0  0  0  0  0  0  0  0  0  0
  1  2  1  0
  1 11  1  0
  1 12  1  0
  1 13  1  0
  2  3  1  0
  2 14  1  0
  3  4  2  0
  3  5  1  0
  5  6  2  3
  5  7  1  0
  6 15  1  0
  6 16  1  0
  7  8  1  0
  7 17  1  0
  8  9  1  0
  8 10  2  0
  9 18  1  0
  9 19  1  0
  9 20  1  0
M  END

> <RosettaParamsInstructions>
M  ROOT 7
M  POLY_N_BB 7
M  POLY_CA_BB 5
M  POLY_C_BB 3
M  POLY_O_BB 4
M  POLY_IGNORE 1 10 9 14 11 12 13 18 19 20
M  POLY_UPPER 2
M  POLY_LOWER 8
M  POLY_CHG 0
M  POLY_PROPERTIES PROTEIN POLYMER ALPHA_AA ALIPHATIC
M  END

$$$$
DHA_new
     RDKit          3D

 20 19  0  0  0  0  0  0  0  0999 V2000
    2.6793   -1.0500    2.5926 C   0  0  0  0  0  0  0  0  0  0  0  0
    1.7315   -0.2526    1.8355 N   0  0  0  0  0  0  0  0  0  0  0  0
    0.5588   -0.8057    1.3092 C   0  0  0  0  0  0  0  0  0  0  0  0
    0.3564   -2.0436    1.5227 O   0  0  0  0  0  0  0  0  0  0  0  0
   -0.4487   -0.0565    0.5307 C   0  0  0  0  0  0  0  0  0  0  0  0
   -0.2620    1.2087    0.3009 C   0  0  0  0  0  0  0  0  0  0  0  0
   -1.5722   -0.7520    0.0705 N   0  0  0  0  0  0  0  0  0  0  0  0
   -2.6440   -0.2638   -0.6755 C   0  0  0  0  0  0  0  0  0  0  0  0
   -3.7882   -1.1518   -1.0963 C   0  0  0  0  0  0  0  0  0  0  0  0
   -2.7452    0.9238   -1.0500 O   0  0  0  0  0  0  0  0  0  0  0  0
    3.2841   -1.6981    1.9157 H   0  0  0  0  0  0  0  0  0  0  0  0
    2.1470   -1.7424    3.2845 H   0  0  0  0  0  0  0  0  0  0  0  0
    3.3151   -0.4040    3.2310 H   0  0  0  0  0  0  0  0  0  0  0  0
    1.9581    0.7448    1.7000 H   0  0  0  0  0  0  0  0  0  0  0  0
   -0.9394    1.8097   -0.2484 H   0  0  0  0  0  0  0  0  0  0  0  0
    0.6215    1.7071    0.6757 H   0  0  0  0  0  0  0  0  0  0  0  0
   -1.6098   -1.7902    0.3254 H   0  0  0  0  0  0  0  0  0  0  0  0
   -3.7366   -1.3524   -2.1753 H   0  0  0  0  0  0  0  0  0  0  0  0
   -4.7119   -0.5993   -0.8263 H   0  0  0  0  0  0  0  0  0  0  0  0
   -3.8003   -2.0838   -0.4817 H   0  0  0  0  0  0  0  0  0  0  0  0
  1  2  1  0
  1 11  1  0
  1 12  1  0
  1 13  1  0
  2  3  1  0
  2 14  1  0
  3  4  2  0
  3  5  1  0
  5  6  2  3
  5  7  1  0
  6 15  1  0
  6 16  1  0
  7  8  1  0
  7 17  1  0
  8  9  1  0
  8 10  2  0
  9 18  1  0
  9 19  1  0
  9 20  1  0
M  END

> <RosettaParamsInstructions>
M  ROOT 7
M  POLY_N_BB 7
M  POLY_CA_BB 5
M  POLY_C_BB 3
M  POLY_O_BB 4
M  POLY_IGNORE 1 10 9 14 11 12 13 18 19 20
M  POLY_UPPER 2
M  POLY_LOWER 8
M  POLY_CHG 0
M  POLY_PROPERTIES PROTEIN POLYMER ALPHA_AA ALIPHATIC
M  END

$$$$
DHA_new
     RDKit          3D

 20 19  0  0  0  0  0  0  0  0999 V2000
    2.6596   -1.0682    2.6065 C   0  0  0  0  0  0  0  0  0  0  0  0
    1.7076   -0.2182    1.8331 N   0  0  0  0  0  0  0  0  0  0  0  0
    0.5442   -0.8051    1.3226 C   0  0  0  0  0  0  0  0  0  0  0  0
    0.3111   -2.0512    1.5221 O   0  0  0  0  0  0  0  0  0  0  0  0
   -0.4571   -0.0559    0.5478 C   0  0  0  0  0  0  0  0  0  0  0  0
   -0.2577    1.2119    0.3232 C   0  0  0  0  0  0  0  0  0  0  0  0
   -1.5972   -0.7565    0.0812 N   0  0  0  0  0  0  0  0  0  0  0  0
   -2.6426   -0.2300   -0.6594 C   0  0  0  0  0  0  0  0  0  0  0  0
   -3.7790   -1.1535   -1.0644 C   0  0  0  0  0  0  0  0  0  0  0  0
   -2.6940    0.9652   -1.0085 O   0  0  0  0  0  0  0  0  0  0  0  0
    3.4220   -1.3716    1.8744 H   0  0  0  0  0  0  0  0  0  0  0  0
    2.1518   -1.9860    2.9534 H   0  0  0  0  0  0  0  0  0  0  0  0
    3.1138   -0.5008    3.4205 H   0  0  0  0  0  0  0  0  0  0  0  0
    1.9412    0.7825    1.6995 H   0  0  0  0  0  0  0  0  0  0  0  0
   -0.9340    1.8565   -0.2371 H   0  0  0  0  0  0  0  0  0  0  0  0
    0.6497    1.6886    0.7163 H   0  0  0  0  0  0  0  0  0  0  0  0
   -1.6683   -1.7975    0.3188 H   0  0  0  0  0  0  0  0  0  0  0  0
   -4.1904   -1.6177   -0.1566 H   0  0  0  0  0  0  0  0  0  0  0  0
   -3.3481   -1.9332   -1.7083 H   0  0  0  0  0  0  0  0  0  0  0  0
   -4.5392   -0.6115   -1.6444 H   0  0  0  0  0  0  0  0  0  0  0  0
  1  2  1  0
  1 11  1  0
  1 12  1  0
  1 13  1  0
  2  3  1  0
  2 14  1  0
  3  4  2  0
  3  5  1  0
  5  6  2  3
  5  7  1  0
  6 15  1  0
  6 16  1  0
  7  8  1  0
  7 17  1  0
  8  9  1  0
  8 10  2  0
  9 18  1  0
  9 19  1  0
  9 20  1  0
M  END

> <RosettaParamsInstructions>
M  ROOT 7
M  POLY_N_BB 7
M  POLY_CA_BB 5
M  POLY_C_BB 3
M  POLY_O_BB 4
M  POLY_IGNORE 1 10 9 14 11 12 13 18 19 20
M  POLY_UPPER 2
M  POLY_LOWER 8
M  POLY_CHG 0
M  POLY_PROPERTIES PROTEIN POLYMER ALPHA_AA ALIPHATIC
M  END

$$$$
DHA_new
     RDKit          3D

 20 19  0  0  0  0  0  0  0  0999 V2000
    2.3388   -1.5790    2.3357 C   0  0  0  0  0  0  0  0  0  0  0  0
    1.1072   -1.2480    1.6067 N   0  0  0  0  0  0  0  0  0  0  0  0
    0.8377    0.0999    1.3414 C   0  0  0  0  0  0  0  0  0  0  0  0
    1.6512    0.9761    1.7323 O   0  0  0  0  0  0  0  0  0  0  0  0
   -0.3813    0.5091    0.6130 C   0  0  0  0  0  0  0  0  0  0  0  0
   -0.5551    1.7986    0.4072 C   0  0  0  0  0  0  0  0  0  0  0  0
   -1.3085   -0.4558    0.1648 N   0  0  0  0  0  0  0  0  0  0  0  0
   -2.4964   -0.2229   -0.5312 C   0  0  0  0  0  0  0  0  0  0  0  0
   -3.3485   -1.4083   -0.9184 C   0  0  0  0  0  0  0  0  0  0  0  0
   -2.9622    0.8753   -0.8875 O   0  0  0  0  0  0  0  0  0  0  0  0
    2.1113   -1.6022    3.4064 H   0  0  0  0  0  0  0  0  0  0  0  0
    2.6469   -2.5837    2.0248 H   0  0  0  0  0  0  0  0  0  0  0  0
    3.1220   -0.8290    2.1525 H   0  0  0  0  0  0  0  0  0  0  0  0
    0.4824   -2.0274    1.3154 H   0  0  0  0  0  0  0  0  0  0  0  0
   -1.3873    2.1799   -0.0986 H   0  0  0  0  0  0  0  0  0  0  0  0
    0.1953    2.5001    0.7766 H   0  0  0  0  0  0  0  0  0  0  0  0
   -1.1025   -1.4849    0.3673 H   0  0  0  0  0  0  0  0  0  0  0  0
   -4.0791   -1.6391   -0.1241 H   0  0  0  0  0  0  0  0  0  0  0  0
   -3.8120   -1.2253   -1.9095 H   0  0  0  0  0  0  0  0  0  0  0  0
   -2.6664   -2.2857   -1.0339 H   0  0  0  0  0  0  0  0  0  0  0  0
  1  2  1  0
  1 11  1  0
  1 12  1  0
  1 13  1  0
  2  3  1  0
  2 14  1  0
  3  4  2  0
  3  5  1  0
  5  6  2  3
  5  7  1  0
  6 15  1  0
  6 16  1  0
  7  8  1  0
  7 17  1  0
  8  9  1  0
  8 10  2  0
  9 18  1  0
  9 19  1  0
  9 20  1  0
M  END

> <RosettaParamsInstructions>
M  ROOT 7
M  POLY_N_BB 7
M  POLY_CA_BB 5
M  POLY_C_BB 3
M  POLY_O_BB 4
M  POLY_IGNORE 1 10 9 14 11 12 13 18 19 20
M  POLY_UPPER 2
M  POLY_LOWER 8
M  POLY_CHG 0
M  POLY_PROPERTIES PROTEIN POLYMER ALPHA_AA ALIPHATIC
M  END

$$$$
DHA_new
     RDKit          3D

 20 19  0  0  0  0  0  0  0  0999 V2000
    2.5909   -0.5129    2.3974 C   0  0  0  0  0  0  0  0  0  0  0  0
    1.4697   -0.7680    1.7796 N   0  0  0  0  0  0  0  0  0  0  0  0
    0.2723   -1.0406    1.1197 C   0  0  0  0  0  0  0  0  0  0  0  0
   -0.1612   -2.1704    0.8203 O   0  0  0  0  0  0  0  0  0  0  0  0
   -0.5796    0.1058    0.7341 C   0  0  0  0  0  0  0  0  0  0  0  0
   -0.1894    1.3469    1.0672 C   0  0  0  0  0  0  0  0  0  0  0  0
   -1.7425   -0.0883   -0.0222 N   0  0  0  0  0  0  0  0  0  0  0  0
   -2.3646   -1.2254   -0.4959 C   0  0  0  0  0  0  0  0  0  0  0  0
   -3.6342   -1.0719   -1.3175 C   0  0  0  0  0  0  0  0  0  0  0  0
   -2.0366   -2.4171   -0.3539 O   0  0  0  0  0  0  0  0  0  0  0  0
    2.4707    0.3401    3.1666 H   0  0  0  0  0  0  0  0  0  0  0  0
    3.4220   -0.0853    1.7148 H   0  0  0  0  0  0  0  0  0  0  0  0
    3.1738   -1.3240    2.9515 H   0  0  0  0  0  0  0  0  0  0  0  0
    1.8303   -2.1138    1.6621 H   0  0  0  0  0  0  0  0  0  0  0  0
    0.7240    1.5009    1.6050 H   0  0  0  0  0  0  0  0  0  0  0  0
   -0.8220    2.1729    0.8000 H   0  0  0  0  0  0  0  0  0  0  0  0
   -2.2629    0.8368   -0.2823 H   0  0  0  0  0  0  0  0  0  0  0  0
   -3.5609   -1.7793   -2.1875 H   0  0  0  0  0  0  0  0  0  0  0  0
   -3.7013   -0.0613   -1.7156 H   0  0  0  0  0  0  0  0  0  0  0  0
   -4.5051   -1.2974   -0.7025 H   0  0  0  0  0  0  0  0  0  0  0  0
  1  2  1  0
  1 11  1  0
  1 12  1  0
  1 13  1  0
  2  3  1  0
  2 14  1  0
  3  4  2  0
  3  5  1  0
  5  6  2  3
  5  7  1  0
  6 15  1  0
  6 16  1  0
  7  8  1  0
  7 17  1  0
  8  9  1  0
  8 10  2  0
  9 18  1  0
  9 19  1  0
  9 20  1  0
M  END

> <RosettaParamsInstructions>
M  ROOT 7
M  POLY_N_BB 7
M  POLY_CA_BB 5
M  POLY_C_BB 3
M  POLY_O_BB 4
M  POLY_IGNORE 1 10 9 14 11 12 13 18 19 20
M  POLY_UPPER 2
M  POLY_LOWER 8
M  POLY_CHG 0
M  POLY_PROPERTIES PROTEIN POLYMER ALPHA_AA ALIPHATIC
M  END

$$$$
DHA_new
     RDKit          3D

 20 19  0  0  0  0  0  0  0  0999 V2000
    2.3524   -1.6016    2.3488 C   0  0  0  0  0  0  0  0  0  0  0  0
    1.1344   -1.2310    1.6243 N   0  0  0  0  0  0  0  0  0  0  0  0
    0.8198    0.0868    1.3499 C   0  0  0  0  0  0  0  0  0  0  0  0
    1.6164    0.9852    1.7422 O   0  0  0  0  0  0  0  0  0  0  0  0
   -0.4049    0.4836    0.6198 C   0  0  0  0  0  0  0  0  0  0  0  0
   -0.6156    1.7574    0.4080 C   0  0  0  0  0  0  0  0  0  0  0  0
   -1.2942   -0.5079    0.1810 N   0  0  0  0  0  0  0  0  0  0  0  0
   -2.4809   -0.2165   -0.5198 C   0  0  0  0  0  0  0  0  0  0  0  0
   -3.3236   -1.4122   -0.9172 C   0  0  0  0  0  0  0  0  0  0  0  0
   -2.9435    0.8686   -0.8624 O   0  0  0  0  0  0  0  0  0  0  0  0
    3.1677   -0.9356    1.9721 H   0  0  0  0  0  0  0  0  0  0  0  0
    2.2039   -1.3936    3.4128 H   0  0  0  0  0  0  0  0  0  0  0  0
    2.6728   -2.6323    2.1185 H   0  0  0  0  0  0  0  0  0  0  0  0
    0.5431   -2.0228    1.3421 H   0  0  0  0  0  0  0  0  0  0  0  0
   -1.4544    2.1601   -0.1014 H   0  0  0  0  0  0  0  0  0  0  0  0
    0.1000    2.5120    0.7642 H   0  0  0  0  0  0  0  0  0  0  0  0
   -1.0604   -1.5366    0.3885 H   0  0  0  0  0  0  0  0  0  0  0  0
   -4.2900   -1.4097   -0.3940 H   0  0  0  0  0  0  0  0  0  0  0  0
   -3.5380   -1.2526   -2.0061 H   0  0  0  0  0  0  0  0  0  0  0  0
   -2.8115   -2.3537   -0.7305 H   0  0  0  0  0  0  0  0  0  0  0  0
  1  2  1  0
  1 11  1  0
  1 12  1  0
  1 13  1  0
  2  3  1  0
  2 14  1  0
  3  4  2  0
  3  5  1  0
  5  6  2  3
  5  7  1  0
  6 15  1  0
  6 16  1  0
  7  8  1  0
  7 17  1  0
  8  9  1  0
  8 10  2  0
  9 18  1  0
  9 19  1  0
  9 20  1  0
M  END

> <RosettaParamsInstructions>
M  ROOT 7
M  POLY_N_BB 7
M  POLY_CA_BB 5
M  POLY_C_BB 3
M  POLY_O_BB 4
M  POLY_IGNORE 1 10 9 14 11 12 13 18 19 20
M  POLY_UPPER 2
M  POLY_LOWER 8
M  POLY_CHG 0
M  POLY_PROPERTIES PROTEIN POLYMER ALPHA_AA ALIPHATIC
M  END

$$$$
DHA_new
     RDKit          3D

 20 19  0  0  0  0  0  0  0  0999 V2000
    2.6527   -1.0895    2.6123 C   0  0  0  0  0  0  0  0  0  0  0  0
    1.6919   -0.2479    1.9030 N   0  0  0  0  0  0  0  0  0  0  0  0
    0.5429   -0.7907    1.2996 C   0  0  0  0  0  0  0  0  0  0  0  0
    0.3912   -2.0485    1.4075 O   0  0  0  0  0  0  0  0  0  0  0  0
   -0.4722   -0.0259    0.5698 C   0  0  0  0  0  0  0  0  0  0  0  0
   -0.3523    1.2729    0.4363 C   0  0  0  0  0  0  0  0  0  0  0  0
   -1.5557   -0.7542    0.0353 N   0  0  0  0  0  0  0  0  0  0  0  0
   -2.6241   -0.2429   -0.6863 C   0  0  0  0  0  0  0  0  0  0  0  0
   -3.6945   -1.1779   -1.1803 C   0  0  0  0  0  0  0  0  0  0  0  0
   -2.7781    0.9600   -0.9689 O   0  0  0  0  0  0  0  0  0  0  0  0
    2.0705   -1.7825    3.2523 H   0  0  0  0  0  0  0  0  0  0  0  0
    3.3733   -0.4693    3.1644 H   0  0  0  0  0  0  0  0  0  0  0  0
    3.2210   -1.6591    1.8592 H   0  0  0  0  0  0  0  0  0  0  0  0
    1.8722    0.7740    1.8497 H   0  0  0  0  0  0  0  0  0  0  0  0
    0.5161    1.7797    0.8770 H   0  0  0  0  0  0  0  0  0  0  0  0
   -1.0347    1.9139   -0.0743 H   0  0  0  0  0  0  0  0  0  0  0  0
   -1.5681   -1.8167    0.1958 H   0  0  0  0  0  0  0  0  0  0  0  0
   -3.2274   -2.1507   -1.4336 H   0  0  0  0  0  0  0  0  0  0  0  0
   -4.4012   -1.3428   -0.3452 H   0  0  0  0  0  0  0  0  0  0  0  0
   -4.2298   -0.7541   -2.0328 H   0  0  0  0  0  0  0  0  0  0  0  0
  1  2  1  0
  1 11  1  0
  1 12  1  0
  1 13  1  0
  2  3  1  0
  2 14  1  0
  3  4  2  0
  3  5  1  0
  5  6  2  3
  5  7  1  0
  6 15  1  0
  6 16  1  0
  7  8  1  0
  7 17  1  0
  8  9  1  0
  8 10  2  0
  9 18  1  0
  9 19  1  0
  9 20  1  0
M  END

> <RosettaParamsInstructions>
M  ROOT 7
M  POLY_N_BB 7
M  POLY_CA_BB 5
M  POLY_C_BB 3
M  POLY_O_BB 4
M  POLY_IGNORE 1 10 9 14 11 12 13 18 19 20
M  POLY_UPPER 2
M  POLY_LOWER 8
M  POLY_CHG 0
M  POLY_PROPERTIES PROTEIN POLYMER ALPHA_AA ALIPHATIC
M  END

$$$$
DHA_new
     RDKit          3D

 20 19  0  0  0  0  0  0  0  0999 V2000
    2.6387   -1.0936    2.5762 C   0  0  0  0  0  0  0  0  0  0  0  0
    1.7021   -0.2035    1.8762 N   0  0  0  0  0  0  0  0  0  0  0  0
    0.5567   -0.7918    1.2993 C   0  0  0  0  0  0  0  0  0  0  0  0
    0.4101   -2.0469    1.4219 O   0  0  0  0  0  0  0  0  0  0  0  0
   -0.4741   -0.0096    0.5618 C   0  0  0  0  0  0  0  0  0  0  0  0
   -0.3442    1.2759    0.4244 C   0  0  0  0  0  0  0  0  0  0  0  0
   -1.5580   -0.7416    0.0451 N   0  0  0  0  0  0  0  0  0  0  0  0
   -2.6416   -0.2321   -0.6781 C   0  0  0  0  0  0  0  0  0  0  0  0
   -3.7100   -1.2114   -1.1445 C   0  0  0  0  0  0  0  0  0  0  0  0
   -2.7837    0.9655   -0.9611 O   0  0  0  0  0  0  0  0  0  0  0  0
    3.4034   -1.4694    1.8646 H   0  0  0  0  0  0  0  0  0  0  0  0
    3.1586   -0.5597    3.3940 H   0  0  0  0  0  0  0  0  0  0  0  0
    2.0885   -1.9708    2.9565 H   0  0  0  0  0  0  0  0  0  0  0  0
    1.9236    0.8218    1.8361 H   0  0  0  0  0  0  0  0  0  0  0  0
    0.5192    1.7946    0.8467 H   0  0  0  0  0  0  0  0  0  0  0  0
   -1.0558    1.8718   -0.0940 H   0  0  0  0  0  0  0  0  0  0  0  0
   -1.5719   -1.8065    0.2142 H   0  0  0  0  0  0  0  0  0  0  0  0
   -3.2016   -2.1455   -1.4424 H   0  0  0  0  0  0  0  0  0  0  0  0
   -4.2769   -0.7435   -1.9754 H   0  0  0  0  0  0  0  0  0  0  0  0
   -4.3896   -1.3559   -0.2806 H   0  0  0  0  0  0  0  0  0  0  0  0
  1  2  1  0
  1 11  1  0
  1 12  1  0
  1 13  1  0
  2  3  1  0
  2 14  1  0
  3  4  2  0
  3  5  1  0
  5  6  2  3
  5  7  1  0
  6 15  1  0
  6 16  1  0
  7  8  1  0
  7 17  1  0
  8  9  1  0
  8 10  2  0
  9 18  1  0
  9 19  1  0
  9 20  1  0
M  END

> <RosettaParamsInstructions>
M  ROOT 7
M  POLY_N_BB 7
M  POLY_CA_BB 5
M  POLY_C_BB 3
M  POLY_O_BB 4
M  POLY_IGNORE 1 10 9 14 11 12 13 18 19 20
M  POLY_UPPER 2
M  POLY_LOWER 8
M  POLY_CHG 0
M  POLY_PROPERTIES PROTEIN POLYMER ALPHA_AA ALIPHATIC
M  END

$$$$
DHA_new
     RDKit          3D

 20 19  0  0  0  0  0  0  0  0999 V2000
    2.6678   -1.0787    2.5744 C   0  0  0  0  0  0  0  0  0  0  0  0
    1.7003   -0.2259    1.8684 N   0  0  0  0  0  0  0  0  0  0  0  0
    0.5754   -0.8163    1.3045 C   0  0  0  0  0  0  0  0  0  0  0  0
    0.4048   -2.0748    1.4089 O   0  0  0  0  0  0  0  0  0  0  0  0
   -0.4507   -0.0730    0.5819 C   0  0  0  0  0  0  0  0  0  0  0  0
   -0.3029    1.2292    0.4570 C   0  0  0  0  0  0  0  0  0  0  0  0
   -1.5612   -0.7864    0.0464 N   0  0  0  0  0  0  0  0  0  0  0  0
   -2.6386   -0.2502   -0.6728 C   0  0  0  0  0  0  0  0  0  0  0  0
   -3.7373   -1.1512   -1.1709 C   0  0  0  0  0  0  0  0  0  0  0  0
   -2.7908    0.9570   -0.9582 O   0  0  0  0  0  0  0  0  0  0  0  0
    2.1311   -1.9492    2.9493 H   0  0  0  0  0  0  0  0  0  0  0  0
    3.5089   -1.3067    1.8918 H   0  0  0  0  0  0  0  0  0  0  0  0
    3.0789   -0.4961    3.4277 H   0  0  0  0  0  0  0  0  0  0  0  0
    1.9222    0.7715    1.8362 H   0  0  0  0  0  0  0  0  0  0  0  0
    0.5646    1.7037    0.8888 H   0  0  0  0  0  0  0  0  0  0  0  0
   -1.0213    1.8731   -0.0690 H   0  0  0  0  0  0  0  0  0  0  0  0
   -1.5558   -1.8453    0.2216 H   0  0  0  0  0  0  0  0  0  0  0  0
   -3.9007   -1.9817   -0.4345 H   0  0  0  0  0  0  0  0  0  0  0  0
   -3.4989   -1.5420   -2.1683 H   0  0  0  0  0  0  0  0  0  0  0  0
   -4.7023   -0.6092   -1.2421 H   0  0  0  0  0  0  0  0  0  0  0  0
  1  2  1  0
  1 11  1  0
  1 12  1  0
  1 13  1  0
  2  3  1  0
  2 14  1  0
  3  4  2  0
  3  5  1  0
  5  6  2  3
  5  7  1  0
  6 15  1  0
  6 16  1  0
  7  8  1  0
  7 17  1  0
  8  9  1  0
  8 10  2  0
  9 18  1  0
  9 19  1  0
  9 20  1  0
M  END

> <RosettaParamsInstructions>
M  ROOT 7
M  POLY_N_BB 7
M  POLY_CA_BB 5
M  POLY_C_BB 3
M  POLY_O_BB 4
M  POLY_IGNORE 1 10 9 14 11 12 13 18 19 20
M  POLY_UPPER 2
M  POLY_LOWER 8
M  POLY_CHG 0
M  POLY_PROPERTIES PROTEIN POLYMER ALPHA_AA ALIPHATIC
M  END

$$$$
DHA_new
     RDKit          3D

 20 19  0  0  0  0  0  0  0  0999 V2000
    2.7085   -1.0639    2.4958 C   0  0  0  0  0  0  0  0  0  0  0  0
    1.7265   -0.2285    1.8457 N   0  0  0  0  0  0  0  0  0  0  0  0
    0.5832   -0.8060    1.2716 C   0  0  0  0  0  0  0  0  0  0  0  0
    0.4563   -2.0809    1.3507 O   0  0  0  0  0  0  0  0  0  0  0  0
   -0.4838   -0.0402    0.5820 C   0  0  0  0  0  0  0  0  0  0  0  0
   -0.3808    1.2541    0.4872 C   0  0  0  0  0  0  0  0  0  0  0  0
   -1.5699   -0.7693    0.0579 N   0  0  0  0  0  0  0  0  0  0  0  0
   -2.6645   -0.2131   -0.6226 C   0  0  0  0  0  0  0  0  0  0  0  0
   -3.7323   -1.1560   -1.1112 C   0  0  0  0  0  0  0  0  0  0  0  0
   -2.8712    0.9900   -0.8807 O   0  0  0  0  0  0  0  0  0  0  0  0
    2.3423   -2.1178    2.5476 H   0  0  0  0  0  0  0  0  0  0  0  0
    2.8913   -0.7601    3.5481 H   0  0  0  0  0  0  0  0  0  0  0  0
    3.6700   -1.0795    1.9530 H   0  0  0  0  0  0  0  0  0  0  0  0
    1.9191    0.7868    1.8342 H   0  0  0  0  0  0  0  0  0  0  0  0
   -1.1136    1.8697    0.0029 H   0  0  0  0  0  0  0  0  0  0  0  0
    0.5018    1.7672    0.9224 H   0  0  0  0  0  0  0  0  0  0  0  0
   -1.5702   -1.8433    0.1843 H   0  0  0  0  0  0  0  0  0  0  0  0
   -4.5258   -1.2423   -0.3413 H   0  0  0  0  0  0  0  0  0  0  0  0
   -4.2081   -0.7805   -2.0396 H   0  0  0  0  0  0  0  0  0  0  0  0
   -3.2853   -2.1388   -1.3472 H   0  0  0  0  0  0  0  0  0  0  0  0
  1  2  1  0
  1 11  1  0
  1 12  1  0
  1 13  1  0
  2  3  1  0
  2 14  1  0
  3  4  2  0
  3  5  1  0
  5  6  2  3
  5  7  1  0
  6 15  1  0
  6 16  1  0
  7  8  1  0
  7 17  1  0
  8  9  1  0
  8 10  2  0
  9 18  1  0
  9 19  1  0
  9 20  1  0
M  END

> <RosettaParamsInstructions>
M  ROOT 7
M  POLY_N_BB 7
M  POLY_CA_BB 5
M  POLY_C_BB 3
M  POLY_O_BB 4
M  POLY_IGNORE 1 10 9 14 11 12 13 18 19 20
M  POLY_UPPER 2
M  POLY_LOWER 8
M  POLY_CHG 0
M  POLY_PROPERTIES PROTEIN POLYMER ALPHA_AA ALIPHATIC
M  END

$$$$
DHA_new
     RDKit          3D

 20 19  0  0  0  0  0  0  0  0999 V2000
    2.6655   -1.0422    2.5740 C   0  0  0  0  0  0  0  0  0  0  0  0
    1.6744   -0.2211    1.8521 N   0  0  0  0  0  0  0  0  0  0  0  0
    0.5597   -0.8424    1.3073 C   0  0  0  0  0  0  0  0  0  0  0  0
    0.4136   -2.0887    1.4373 O   0  0  0  0  0  0  0  0  0  0  0  0
   -0.4750   -0.0790    0.5699 C   0  0  0  0  0  0  0  0  0  0  0  0
   -0.2883    1.2194    0.4547 C   0  0  0  0  0  0  0  0  0  0  0  0
   -1.5717   -0.7938    0.0518 N   0  0  0  0  0  0  0  0  0  0  0  0
   -2.6250   -0.2577   -0.6572 C   0  0  0  0  0  0  0  0  0  0  0  0
   -3.7399   -1.1616   -1.1533 C   0  0  0  0  0  0  0  0  0  0  0  0
   -2.7397    0.9461   -0.9324 O   0  0  0  0  0  0  0  0  0  0  0  0
    2.7362   -2.0294    2.0662 H   0  0  0  0  0  0  0  0  0  0  0  0
    3.6411   -0.5526    2.5760 H   0  0  0  0  0  0  0  0  0  0  0  0
    2.3226   -1.2021    3.6035 H   0  0  0  0  0  0  0  0  0  0  0  0
    1.8739    0.7792    1.7959 H   0  0  0  0  0  0  0  0  0  0  0  0
   -0.9928    1.8363   -0.0642 H   0  0  0  0  0  0  0  0  0  0  0  0
    0.5612    1.7671    0.8571 H   0  0  0  0  0  0  0  0  0  0  0  0
   -1.5847   -1.8421    0.2254 H   0  0  0  0  0  0  0  0  0  0  0  0
   -4.6737   -0.8735   -0.6146 H   0  0  0  0  0  0  0  0  0  0  0  0
   -3.4928   -2.2220   -0.9738 H   0  0  0  0  0  0  0  0  0  0  0  0
   -3.8710   -0.9923   -2.2347 H   0  0  0  0  0  0  0  0  0  0  0  0
  1  2  1  0
  1 11  1  0
  1 12  1  0
  1 13  1  0
  2  3  1  0
  2 14  1  0
  3  4  2  0
  3  5  1  0
  5  6  2  3
  5  7  1  0
  6 15  1  0
  6 16  1  0
  7  8  1  0
  7 17  1  0
  8  9  1  0
  8 10  2  0
  9 18  1  0
  9 19  1  0
  9 20  1  0
M  END

> <RosettaParamsInstructions>
M  ROOT 7
M  POLY_N_BB 7
M  POLY_CA_BB 5
M  POLY_C_BB 3
M  POLY_O_BB 4
M  POLY_IGNORE 1 10 9 14 11 12 13 18 19 20
M  POLY_UPPER 2
M  POLY_LOWER 8
M  POLY_CHG 0
M  POLY_PROPERTIES PROTEIN POLYMER ALPHA_AA ALIPHATIC
M  END

$$$$
DHA_new
     RDKit          3D

 20 19  0  0  0  0  0  0  0  0999 V2000
    2.7210   -1.0690    2.5374 C   0  0  0  0  0  0  0  0  0  0  0  0
    1.7054   -0.2610    1.8714 N   0  0  0  0  0  0  0  0  0  0  0  0
    0.5711   -0.8084    1.2687 C   0  0  0  0  0  0  0  0  0  0  0  0
    0.4367   -2.0779    1.3146 O   0  0  0  0  0  0  0  0  0  0  0  0
   -0.4691   -0.0555    0.5937 C   0  0  0  0  0  0  0  0  0  0  0  0
   -0.3323    1.2543    0.5452 C   0  0  0  0  0  0  0  0  0  0  0  0
   -1.5722   -0.7561    0.0240 N   0  0  0  0  0  0  0  0  0  0  0  0
   -2.6648   -0.2561   -0.6566 C   0  0  0  0  0  0  0  0  0  0  0  0
   -3.7298   -1.1833   -1.1821 C   0  0  0  0  0  0  0  0  0  0  0  0
   -2.8507    0.9474   -0.8813 O   0  0  0  0  0  0  0  0  0  0  0  0
    3.6794   -0.5325    2.6316 H   0  0  0  0  0  0  0  0  0  0  0  0
    2.3513   -1.2721    3.5617 H   0  0  0  0  0  0  0  0  0  0  0  0
    2.8255   -1.9937    1.9235 H   0  0  0  0  0  0  0  0  0  0  0  0
    1.8741    0.7584    1.8699 H   0  0  0  0  0  0  0  0  0  0  0  0
   -1.0868    1.8411    0.0517 H   0  0  0  0  0  0  0  0  0  0  0  0
    0.5080    1.7866    0.9793 H   0  0  0  0  0  0  0  0  0  0  0  0
   -1.5463   -1.8293    0.1436 H   0  0  0  0  0  0  0  0  0  0  0  0
   -4.7003   -0.8610   -0.7349 H   0  0  0  0  0  0  0  0  0  0  0  0
   -3.8107   -1.0798   -2.2744 H   0  0  0  0  0  0  0  0  0  0  0  0
   -3.5161   -2.2043   -0.8462 H   0  0  0  0  0  0  0  0  0  0  0  0
  1  2  1  0
  1 11  1  0
  1 12  1  0
  1 13  1  0
  2  3  1  0
  2 14  1  0
  3  4  2  0
  3  5  1  0
  5  6  2  3
  5  7  1  0
  6 15  1  0
  6 16  1  0
  7  8  1  0
  7 17  1  0
  8  9  1  0
  8 10  2  0
  9 18  1  0
  9 19  1  0
  9 20  1  0
M  END

> <RosettaParamsInstructions>
M  ROOT 7
M  POLY_N_BB 7
M  POLY_CA_BB 5
M  POLY_C_BB 3
M  POLY_O_BB 4
M  POLY_IGNORE 1 10 9 14 11 12 13 18 19 20
M  POLY_UPPER 2
M  POLY_LOWER 8
M  POLY_CHG 0
M  POLY_PROPERTIES PROTEIN POLYMER ALPHA_AA ALIPHATIC
M  END

$$$$
DHA_new
     RDKit          3D

 20 19  0  0  0  0  0  0  0  0999 V2000
    2.6504   -1.0682    2.5625 C   0  0  0  0  0  0  0  0  0  0  0  0
    1.6737   -0.2463    1.8563 N   0  0  0  0  0  0  0  0  0  0  0  0
    0.5346   -0.8080    1.2838 C   0  0  0  0  0  0  0  0  0  0  0  0
    0.3729   -2.0533    1.3953 O   0  0  0  0  0  0  0  0  0  0  0  0
   -0.4566   -0.0414    0.5783 C   0  0  0  0  0  0  0  0  0  0  0  0
   -0.3297    1.2441    0.4399 C   0  0  0  0  0  0  0  0  0  0  0  0
   -1.5749   -0.7381    0.0403 N   0  0  0  0  0  0  0  0  0  0  0  0
   -2.6489   -0.2104   -0.6741 C   0  0  0  0  0  0  0  0  0  0  0  0
   -3.7241   -1.1694   -1.1435 C   0  0  0  0  0  0  0  0  0  0  0  0
   -2.7928    0.9773   -0.9545 O   0  0  0  0  0  0  0  0  0  0  0  0
    2.7487   -2.0612    2.0607 H   0  0  0  0  0  0  0  0  0  0  0  0
    3.6390   -0.5705    2.5820 H   0  0  0  0  0  0  0  0  0  0  0  0
    2.3503   -1.2558    3.6089 H   0  0  0  0  0  0  0  0  0  0  0  0
    1.8723    0.7640    1.8052 H   0  0  0  0  0  0  0  0  0  0  0  0
    0.5384    1.7462    0.8639 H   0  0  0  0  0  0  0  0  0  0  0  0
   -1.0102    1.8913   -0.0645 H   0  0  0  0  0  0  0  0  0  0  0  0
   -1.6003   -1.8050    0.2018 H   0  0  0  0  0  0  0  0  0  0  0  0
   -3.3382   -1.7617   -1.9889 H   0  0  0  0  0  0  0  0  0  0  0  0
   -4.6304   -0.6301   -1.4258 H   0  0  0  0  0  0  0  0  0  0  0  0
   -3.8806   -1.8556   -0.2866 H   0  0  0  0  0  0  0  0  0  0  0  0
  1  2  1  0
  1 11  1  0
  1 12  1  0
  1 13  1  0
  2  3  1  0
  2 14  1  0
  3  4  2  0
  3  5  1  0
  5  6  2  3
  5  7  1  0
  6 15  1  0
  6 16  1  0
  7  8  1  0
  7 17  1  0
  8  9  1  0
  8 10  2  0
  9 18  1  0
  9 19  1  0
  9 20  1  0
M  END

> <RosettaParamsInstructions>
M  ROOT 7
M  POLY_N_BB 7
M  POLY_CA_BB 5
M  POLY_C_BB 3
M  POLY_O_BB 4
M  POLY_IGNORE 1 10 9 14 11 12 13 18 19 20
M  POLY_UPPER 2
M  POLY_LOWER 8
M  POLY_CHG 0
M  POLY_PROPERTIES PROTEIN POLYMER ALPHA_AA ALIPHATIC
M  END

$$$$
DHA_new
     RDKit          3D

 20 19  0  0  0  0  0  0  0  0999 V2000
    2.6544   -1.0470    2.5804 C   0  0  0  0  0  0  0  0  0  0  0  0
    1.6669   -0.2225    1.8604 N   0  0  0  0  0  0  0  0  0  0  0  0
    0.5562   -0.8323    1.3078 C   0  0  0  0  0  0  0  0  0  0  0  0
    0.3906   -2.0879    1.4203 O   0  0  0  0  0  0  0  0  0  0  0  0
   -0.4719   -0.0684    0.5741 C   0  0  0  0  0  0  0  0  0  0  0  0
   -0.3235    1.2231    0.4455 C   0  0  0  0  0  0  0  0  0  0  0  0
   -1.5689   -0.8036    0.0506 N   0  0  0  0  0  0  0  0  0  0  0  0
   -2.6213   -0.2598   -0.6606 C   0  0  0  0  0  0  0  0  0  0  0  0
   -3.7138   -1.1716   -1.1519 C   0  0  0  0  0  0  0  0  0  0  0  0
   -2.7560    0.9443   -0.9414 O   0  0  0  0  0  0  0  0  0  0  0  0
    3.1106   -0.4765    3.4024 H   0  0  0  0  0  0  0  0  0  0  0  0
    2.1473   -1.9424    2.9964 H   0  0  0  0  0  0  0  0  0  0  0  0
    3.4196   -1.3152    1.8085 H   0  0  0  0  0  0  0  0  0  0  0  0
    1.8834    0.7712    1.8217 H   0  0  0  0  0  0  0  0  0  0  0  0
    0.5452    1.7029    0.8772 H   0  0  0  0  0  0  0  0  0  0  0  0
   -1.0262    1.8472   -0.0731 H   0  0  0  0  0  0  0  0  0  0  0  0
   -1.5735   -1.8600    0.2246 H   0  0  0  0  0  0  0  0  0  0  0  0
   -3.3786   -2.2057   -1.0964 H   0  0  0  0  0  0  0  0  0  0  0  0
   -3.9472   -0.8381   -2.1889 H   0  0  0  0  0  0  0  0  0  0  0  0
   -4.5997   -1.0100   -0.5168 H   0  0  0  0  0  0  0  0  0  0  0  0
  1  2  1  0
  1 11  1  0
  1 12  1  0
  1 13  1  0
  2  3  1  0
  2 14  1  0
  3  4  2  0
  3  5  1  0
  5  6  2  3
  5  7  1  0
  6 15  1  0
  6 16  1  0
  7  8  1  0
  7 17  1  0
  8  9  1  0
  8 10  2  0
  9 18  1  0
  9 19  1  0
  9 20  1  0
M  END

> <RosettaParamsInstructions>
M  ROOT 7
M  POLY_N_BB 7
M  POLY_CA_BB 5
M  POLY_C_BB 3
M  POLY_O_BB 4
M  POLY_IGNORE 1 10 9 14 11 12 13 18 19 20
M  POLY_UPPER 2
M  POLY_LOWER 8
M  POLY_CHG 0
M  POLY_PROPERTIES PROTEIN POLYMER ALPHA_AA ALIPHATIC
M  END

$$$$
DHA_new
     RDKit          3D

 20 19  0  0  0  0  0  0  0  0999 V2000
    2.6310   -1.0719    2.6415 C   0  0  0  0  0  0  0  0  0  0  0  0
    1.6797   -0.2295    1.8700 N   0  0  0  0  0  0  0  0  0  0  0  0
    0.5451   -0.8258    1.3329 C   0  0  0  0  0  0  0  0  0  0  0  0
    0.3402   -2.0763    1.5093 O   0  0  0  0  0  0  0  0  0  0  0  0
   -0.4534   -0.0563    0.5506 C   0  0  0  0  0  0  0  0  0  0  0  0
   -0.2881    1.2177    0.3449 C   0  0  0  0  0  0  0  0  0  0  0  0
   -1.5747   -0.7440    0.0433 N   0  0  0  0  0  0  0  0  0  0  0  0
   -2.6134   -0.2262   -0.7028 C   0  0  0  0  0  0  0  0  0  0  0  0
   -3.7179   -1.1583   -1.1416 C   0  0  0  0  0  0  0  0  0  0  0  0
   -2.6993    0.9682   -1.0400 O   0  0  0  0  0  0  0  0  0  0  0  0
    2.0216   -1.8691    3.1147 H   0  0  0  0  0  0  0  0  0  0  0  0
    3.1267   -0.4412    3.3988 H   0  0  0  0  0  0  0  0  0  0  0  0
    3.3928   -1.4790    1.9499 H   0  0  0  0  0  0  0  0  0  0  0  0
    1.9068    0.7813    1.7643 H   0  0  0  0  0  0  0  0  0  0  0  0
    0.6036    1.7218    0.7586 H   0  0  0  0  0  0  0  0  0  0  0  0
   -0.9476    1.8481   -0.2009 H   0  0  0  0  0  0  0  0  0  0  0  0
   -1.6150   -1.7923    0.2699 H   0  0  0  0  0  0  0  0  0  0  0  0
   -4.3362   -0.7195   -1.9280 H   0  0  0  0  0  0  0  0  0  0  0  0
   -3.2438   -2.0928   -1.5131 H   0  0  0  0  0  0  0  0  0  0  0  0
   -4.3645   -1.4071   -0.2814 H   0  0  0  0  0  0  0  0  0  0  0  0
  1  2  1  0
  1 11  1  0
  1 12  1  0
  1 13  1  0
  2  3  1  0
  2 14  1  0
  3  4  2  0
  3  5  1  0
  5  6  2  3
  5  7  1  0
  6 15  1  0
  6 16  1  0
  7  8  1  0
  7 17  1  0
  8  9  1  0
  8 10  2  0
  9 18  1  0
  9 19  1  0
  9 20  1  0
M  END

> <RosettaParamsInstructions>
M  ROOT 7
M  POLY_N_BB 7
M  POLY_CA_BB 5
M  POLY_C_BB 3
M  POLY_O_BB 4
M  POLY_IGNORE 1 10 9 14 11 12 13 18 19 20
M  POLY_UPPER 2
M  POLY_LOWER 8
M  POLY_CHG 0
M  POLY_PROPERTIES PROTEIN POLYMER ALPHA_AA ALIPHATIC
M  END

$$$$
DHA_new
     RDKit          3D

 20 19  0  0  0  0  0  0  0  0999 V2000
    2.6911   -1.0619    2.5889 C   0  0  0  0  0  0  0  0  0  0  0  0
    1.7340   -0.2436    1.8330 N   0  0  0  0  0  0  0  0  0  0  0  0
    0.5618   -0.8084    1.3027 C   0  0  0  0  0  0  0  0  0  0  0  0
    0.3480   -2.0529    1.4940 O   0  0  0  0  0  0  0  0  0  0  0  0
   -0.4599   -0.0679    0.5293 C   0  0  0  0  0  0  0  0  0  0  0  0
   -0.2650    1.2148    0.3175 C   0  0  0  0  0  0  0  0  0  0  0  0
   -1.5932   -0.7677    0.0554 N   0  0  0  0  0  0  0  0  0  0  0  0
   -2.6411   -0.2484   -0.6772 C   0  0  0  0  0  0  0  0  0  0  0  0
   -3.7759   -1.1504   -1.1010 C   0  0  0  0  0  0  0  0  0  0  0  0
   -2.7138    0.9393   -1.0187 O   0  0  0  0  0  0  0  0  0  0  0  0
    2.4172   -2.1334    2.4428 H   0  0  0  0  0  0  0  0  0  0  0  0
    2.4870   -0.8442    3.6567 H   0  0  0  0  0  0  0  0  0  0  0  0
    3.7254   -0.8418    2.3165 H   0  0  0  0  0  0  0  0  0  0  0  0
    1.9866    0.7512    1.7269 H   0  0  0  0  0  0  0  0  0  0  0  0
    0.6256    1.7097    0.7038 H   0  0  0  0  0  0  0  0  0  0  0  0
   -0.9175    1.8728   -0.2231 H   0  0  0  0  0  0  0  0  0  0  0  0
   -1.6570   -1.8191    0.2841 H   0  0  0  0  0  0  0  0  0  0  0  0
   -4.6906   -0.5460   -1.2739 H   0  0  0  0  0  0  0  0  0  0  0  0
   -3.5023   -1.7521   -1.9846 H   0  0  0  0  0  0  0  0  0  0  0  0
   -3.9667   -1.8025   -0.2323 H   0  0  0  0  0  0  0  0  0  0  0  0
  1  2  1  0
  1 11  1  0
  1 12  1  0
  1 13  1  0
  2  3  1  0
  2 14  1  0
  3  4  2  0
  3  5  1  0
  5  6  2  3
  5  7  1  0
  6 15  1  0
  6 16  1  0
  7  8  1  0
  7 17  1  0
  8  9  1  0
  8 10  2  0
  9 18  1  0
  9 19  1  0
  9 20  1  0
M  END

> <RosettaParamsInstructions>
M  ROOT 7
M  POLY_N_BB 7
M  POLY_CA_BB 5
M  POLY_C_BB 3
M  POLY_O_BB 4
M  POLY_IGNORE 1 10 9 14 11 12 13 18 19 20
M  POLY_UPPER 2
M  POLY_LOWER 8
M  POLY_CHG 0
M  POLY_PROPERTIES PROTEIN POLYMER ALPHA_AA ALIPHATIC
M  END

$$$$
DHA_new
     RDKit          3D

 20 19  0  0  0  0  0  0  0  0999 V2000
    2.6995   -1.0857    2.5593 C   0  0  0  0  0  0  0  0  0  0  0  0
    1.7302   -0.2120    1.8698 N   0  0  0  0  0  0  0  0  0  0  0  0
    0.5915   -0.8111    1.3013 C   0  0  0  0  0  0  0  0  0  0  0  0
    0.4418   -2.0527    1.3992 O   0  0  0  0  0  0  0  0  0  0  0  0
   -0.4676   -0.0568    0.5776 C   0  0  0  0  0  0  0  0  0  0  0  0
   -0.3501    1.2367    0.4533 C   0  0  0  0  0  0  0  0  0  0  0  0
   -1.5533   -0.7838    0.0587 N   0  0  0  0  0  0  0  0  0  0  0  0
   -2.6390   -0.2623   -0.6458 C   0  0  0  0  0  0  0  0  0  0  0  0
   -3.7464   -1.1628   -1.1515 C   0  0  0  0  0  0  0  0  0  0  0  0
   -2.7944    0.9338   -0.9131 O   0  0  0  0  0  0  0  0  0  0  0  0
    3.1032   -1.8333    1.8461 H   0  0  0  0  0  0  0  0  0  0  0  0
    3.4982   -0.4539    2.9998 H   0  0  0  0  0  0  0  0  0  0  0  0
    2.1885   -1.5731    3.4283 H   0  0  0  0  0  0  0  0  0  0  0  0
    1.9159    0.8187    1.8240 H   0  0  0  0  0  0  0  0  0  0  0  0
    0.5071    1.7771    0.8681 H   0  0  0  0  0  0  0  0  0  0  0  0
   -1.0725    1.8441   -0.0540 H   0  0  0  0  0  0  0  0  0  0  0  0
   -1.5753   -1.8647    0.2065 H   0  0  0  0  0  0  0  0  0  0  0  0
   -3.4109   -2.2177   -1.1514 H   0  0  0  0  0  0  0  0  0  0  0  0
   -4.6652   -1.0275   -0.5461 H   0  0  0  0  0  0  0  0  0  0  0  0
   -4.0077   -0.8653   -2.1891 H   0  0  0  0  0  0  0  0  0  0  0  0
  1  2  1  0
  1 11  1  0
  1 12  1  0
  1 13  1  0
  2  3  1  0
  2 14  1  0
  3  4  2  0
  3  5  1  0
  5  6  2  3
  5  7  1  0
  6 15  1  0
  6 16  1  0
  7  8  1  0
  7 17  1  0
  8  9  1  0
  8 10  2  0
  9 18  1  0
  9 19  1  0
  9 20  1  0
M  END

> <RosettaParamsInstructions>
M  ROOT 7
M  POLY_N_BB 7
M  POLY_CA_BB 5
M  POLY_C_BB 3
M  POLY_O_BB 4
M  POLY_IGNORE 1 10 9 14 11 12 13 18 19 20
M  POLY_UPPER 2
M  POLY_LOWER 8
M  POLY_CHG 0
M  POLY_PROPERTIES PROTEIN POLYMER ALPHA_AA ALIPHATIC
M  END

$$$$
DHA_new
     RDKit          3D

 20 19  0  0  0  0  0  0  0  0999 V2000
    2.6987   -1.0425    2.6091 C   0  0  0  0  0  0  0  0  0  0  0  0
    1.6984   -0.2279    1.8855 N   0  0  0  0  0  0  0  0  0  0  0  0
    0.5715   -0.8489    1.3191 C   0  0  0  0  0  0  0  0  0  0  0  0
    0.4052   -2.0805    1.4199 O   0  0  0  0  0  0  0  0  0  0  0  0
   -0.4654   -0.0750    0.5804 C   0  0  0  0  0  0  0  0  0  0  0  0
   -0.3114    1.2217    0.4618 C   0  0  0  0  0  0  0  0  0  0  0  0
   -1.5753   -0.7580    0.0340 N   0  0  0  0  0  0  0  0  0  0  0  0
   -2.6583   -0.2590   -0.6876 C   0  0  0  0  0  0  0  0  0  0  0  0
   -3.7606   -1.1626   -1.1938 C   0  0  0  0  0  0  0  0  0  0  0  0
   -2.7988    0.9398   -0.9646 O   0  0  0  0  0  0  0  0  0  0  0  0
    2.5877   -2.1036    2.3089 H   0  0  0  0  0  0  0  0  0  0  0  0
    3.7255   -0.7134    2.2936 H   0  0  0  0  0  0  0  0  0  0  0  0
    2.5597   -0.9747    3.6959 H   0  0  0  0  0  0  0  0  0  0  0  0
    1.9223    0.7806    1.8549 H   0  0  0  0  0  0  0  0  0  0  0  0
    0.5325    1.7503    0.8757 H   0  0  0  0  0  0  0  0  0  0  0  0
   -1.0246    1.8154   -0.0563 H   0  0  0  0  0  0  0  0  0  0  0  0
   -1.5597   -1.8238    0.2156 H   0  0  0  0  0  0  0  0  0  0  0  0
   -3.9383   -1.0116   -2.2701 H   0  0  0  0  0  0  0  0  0  0  0  0
   -4.6622   -0.8651   -0.6542 H   0  0  0  0  0  0  0  0  0  0  0  0
   -3.5533   -2.2135   -0.9870 H   0  0  0  0  0  0  0  0  0  0  0  0
  1  2  1  0
  1 11  1  0
  1 12  1  0
  1 13  1  0
  2  3  1  0
  2 14  1  0
  3  4  2  0
  3  5  1  0
  5  6  2  3
  5  7  1  0
  6 15  1  0
  6 16  1  0
  7  8  1  0
  7 17  1  0
  8  9  1  0
  8 10  2  0
  9 18  1  0
  9 19  1  0
  9 20  1  0
M  END

> <RosettaParamsInstructions>
M  ROOT 7
M  POLY_N_BB 7
M  POLY_CA_BB 5
M  POLY_C_BB 3
M  POLY_O_BB 4
M  POLY_IGNORE 1 10 9 14 11 12 13 18 19 20
M  POLY_UPPER 2
M  POLY_LOWER 8
M  POLY_CHG 0
M  POLY_PROPERTIES PROTEIN POLYMER ALPHA_AA ALIPHATIC
M  END

$$$$
DHA_new
     RDKit          3D

 20 19  0  0  0  0  0  0  0  0999 V2000
    2.6322   -1.1123    2.5704 C   0  0  0  0  0  0  0  0  0  0  0  0
    1.6985   -0.2117    1.8696 N   0  0  0  0  0  0  0  0  0  0  0  0
    0.5542   -0.7889    1.2930 C   0  0  0  0  0  0  0  0  0  0  0  0
    0.3954   -2.0438    1.4103 O   0  0  0  0  0  0  0  0  0  0  0  0
   -0.4726   -0.0110    0.5580 C   0  0  0  0  0  0  0  0  0  0  0  0
   -0.3340    1.2842    0.4220 C   0  0  0  0  0  0  0  0  0  0  0  0
   -1.5687   -0.7222    0.0323 N   0  0  0  0  0  0  0  0  0  0  0  0
   -2.6552   -0.2208   -0.6914 C   0  0  0  0  0  0  0  0  0  0  0  0
   -3.7082   -1.2130   -1.1445 C   0  0  0  0  0  0  0  0  0  0  0  0
   -2.8070    0.9943   -0.9848 O   0  0  0  0  0  0  0  0  0  0  0  0
    3.1111   -0.5404    3.3845 H   0  0  0  0  0  0  0  0  0  0  0  0
    2.0528   -1.9625    2.9729 H   0  0  0  0  0  0  0  0  0  0  0  0
    3.4101   -1.4942    1.8765 H   0  0  0  0  0  0  0  0  0  0  0  0
    1.9467    0.8155    1.8432 H   0  0  0  0  0  0  0  0  0  0  0  0
    0.5444    1.7706    0.8574 H   0  0  0  0  0  0  0  0  0  0  0  0
   -1.0105    1.9298   -0.0846 H   0  0  0  0  0  0  0  0  0  0  0  0
   -1.5712   -1.7798    0.2085 H   0  0  0  0  0  0  0  0  0  0  0  0
   -4.6869   -0.7060   -1.2593 H   0  0  0  0  0  0  0  0  0  0  0  0
   -3.3364   -1.6899   -2.0579 H   0  0  0  0  0  0  0  0  0  0  0  0
   -3.8010   -1.9502   -0.3352 H   0  0  0  0  0  0  0  0  0  0  0  0
  1  2  1  0
  1 11  1  0
  1 12  1  0
  1 13  1  0
  2  3  1  0
  2 14  1  0
  3  4  2  0
  3  5  1  0
  5  6  2  3
  5  7  1  0
  6 15  1  0
  6 16  1  0
  7  8  1  0
  7 17  1  0
  8  9  1  0
  8 10  2  0
  9 18  1  0
  9 19  1  0
  9 20  1  0
M  END

> <RosettaParamsInstructions>
M  ROOT 7
M  POLY_N_BB 7
M  POLY_CA_BB 5
M  POLY_C_BB 3
M  POLY_O_BB 4
M  POLY_IGNORE 1 10 9 14 11 12 13 18 19 20
M  POLY_UPPER 2
M  POLY_LOWER 8
M  POLY_CHG 0
M  POLY_PROPERTIES PROTEIN POLYMER ALPHA_AA ALIPHATIC
M  END

$$$$
DHA_new
     RDKit          3D

 20 19  0  0  0  0  0  0  0  0999 V2000
    2.7273   -1.0463    2.5052 C   0  0  0  0  0  0  0  0  0  0  0  0
    1.6640   -0.2403    1.8933 N   0  0  0  0  0  0  0  0  0  0  0  0
    0.5892   -0.8456    1.2553 C   0  0  0  0  0  0  0  0  0  0  0  0
    0.5461   -2.1041    1.2128 O   0  0  0  0  0  0  0  0  0  0  0  0
   -0.5146   -0.0993    0.6188 C   0  0  0  0  0  0  0  0  0  0  0  0
   -0.4601    1.2020    0.6686 C   0  0  0  0  0  0  0  0  0  0  0  0
   -1.5649   -0.7999   -0.0062 N   0  0  0  0  0  0  0  0  0  0  0  0
   -2.6507   -0.2477   -0.6349 C   0  0  0  0  0  0  0  0  0  0  0  0
   -3.6903   -1.1528   -1.2565 C   0  0  0  0  0  0  0  0  0  0  0  0
   -2.8631    0.9668   -0.7428 O   0  0  0  0  0  0  0  0  0  0  0  0
    2.5928   -1.0272    3.6005 H   0  0  0  0  0  0  0  0  0  0  0  0
    3.6919   -0.5972    2.2311 H   0  0  0  0  0  0  0  0  0  0  0  0
    2.6333   -2.1063    2.1734 H   0  0  0  0  0  0  0  0  0  0  0  0
    1.7751    0.7686    1.9723 H   0  0  0  0  0  0  0  0  0  0  0  0
   -1.1864    1.8907    0.2525 H   0  0  0  0  0  0  0  0  0  0  0  0
    0.3664    1.7449    1.1603 H   0  0  0  0  0  0  0  0  0  0  0  0
   -1.4898   -1.8646    0.0232 H   0  0  0  0  0  0  0  0  0  0  0  0
   -3.6173   -2.1321   -0.7605 H   0  0  0  0  0  0  0  0  0  0  0  0
   -4.6821   -0.6752   -1.1020 H   0  0  0  0  0  0  0  0  0  0  0  0
   -3.4734   -1.2865   -2.3235 H   0  0  0  0  0  0  0  0  0  0  0  0
  1  2  1  0
  1 11  1  0
  1 12  1  0
  1 13  1  0
  2  3  1  0
  2 14  1  0
  3  4  2  0
  3  5  1  0
  5  6  2  3
  5  7  1  0
  6 15  1  0
  6 16  1  0
  7  8  1  0
  7 17  1  0
  8  9  1  0
  8 10  2  0
  9 18  1  0
  9 19  1  0
  9 20  1  0
M  END

> <RosettaParamsInstructions>
M  ROOT 7
M  POLY_N_BB 7
M  POLY_CA_BB 5
M  POLY_C_BB 3
M  POLY_O_BB 4
M  POLY_IGNORE 1 10 9 14 11 12 13 18 19 20
M  POLY_UPPER 2
M  POLY_LOWER 8
M  POLY_CHG 0
M  POLY_PROPERTIES PROTEIN POLYMER ALPHA_AA ALIPHATIC
M  END

$$$$
DHA_new
     RDKit          3D

 20 19  0  0  0  0  0  0  0  0999 V2000
    2.6518   -1.0623    2.5616 C   0  0  0  0  0  0  0  0  0  0  0  0
    1.6826   -0.2254    1.8544 N   0  0  0  0  0  0  0  0  0  0  0  0
    0.5499   -0.8133    1.2933 C   0  0  0  0  0  0  0  0  0  0  0  0
    0.3908   -2.0794    1.4127 O   0  0  0  0  0  0  0  0  0  0  0  0
   -0.4805   -0.0741    0.5699 C   0  0  0  0  0  0  0  0  0  0  0  0
   -0.3295    1.2190    0.4442 C   0  0  0  0  0  0  0  0  0  0  0  0
   -1.5736   -0.7732    0.0451 N   0  0  0  0  0  0  0  0  0  0  0  0
   -2.6380   -0.2313   -0.6677 C   0  0  0  0  0  0  0  0  0  0  0  0
   -3.7250   -1.1836   -1.1468 C   0  0  0  0  0  0  0  0  0  0  0  0
   -2.7633    0.9679   -0.9389 O   0  0  0  0  0  0  0  0  0  0  0  0
    3.2613   -0.4271    3.1988 H   0  0  0  0  0  0  0  0  0  0  0  0
    2.1052   -1.7600    3.2063 H   0  0  0  0  0  0  0  0  0  0  0  0
    3.2742   -1.6277    1.8406 H   0  0  0  0  0  0  0  0  0  0  0  0
    1.9048    0.7835    1.8113 H   0  0  0  0  0  0  0  0  0  0  0  0
   -1.0235    1.8647   -0.0668 H   0  0  0  0  0  0  0  0  0  0  0  0
    0.5385    1.7493    0.8634 H   0  0  0  0  0  0  0  0  0  0  0  0
   -1.6178   -1.8430    0.1939 H   0  0  0  0  0  0  0  0  0  0  0  0
   -4.3352   -1.3999   -0.2616 H   0  0  0  0  0  0  0  0  0  0  0  0
   -3.1637   -2.0537   -1.5530 H   0  0  0  0  0  0  0  0  0  0  0  0
   -4.3155   -0.6827   -1.9200 H   0  0  0  0  0  0  0  0  0  0  0  0
  1  2  1  0
  1 11  1  0
  1 12  1  0
  1 13  1  0
  2  3  1  0
  2 14  1  0
  3  4  2  0
  3  5  1  0
  5  6  2  3
  5  7  1  0
  6 15  1  0
  6 16  1  0
  7  8  1  0
  7 17  1  0
  8  9  1  0
  8 10  2  0
  9 18  1  0
  9 19  1  0
  9 20  1  0
M  END

> <RosettaParamsInstructions>
M  ROOT 7
M  POLY_N_BB 7
M  POLY_CA_BB 5
M  POLY_C_BB 3
M  POLY_O_BB 4
M  POLY_IGNORE 1 10 9 14 11 12 13 18 19 20
M  POLY_UPPER 2
M  POLY_LOWER 8
M  POLY_CHG 0
M  POLY_PROPERTIES PROTEIN POLYMER ALPHA_AA ALIPHATIC
M  END

$$$$
DHA_new
     RDKit          3D

 20 19  0  0  0  0  0  0  0  0999 V2000
    2.7123   -1.0476    2.5555 C   0  0  0  0  0  0  0  0  0  0  0  0
    1.6747   -0.2306    1.9020 N   0  0  0  0  0  0  0  0  0  0  0  0
    0.5787   -0.8339    1.2845 C   0  0  0  0  0  0  0  0  0  0  0  0
    0.4819   -2.0969    1.2901 O   0  0  0  0  0  0  0  0  0  0  0  0
   -0.4993   -0.0662    0.6096 C   0  0  0  0  0  0  0  0  0  0  0  0
   -0.3999    1.2507    0.6030 C   0  0  0  0  0  0  0  0  0  0  0  0
   -1.5560   -0.7996    0.0219 N   0  0  0  0  0  0  0  0  0  0  0  0
   -2.6400   -0.2667   -0.6449 C   0  0  0  0  0  0  0  0  0  0  0  0
   -3.7029   -1.1702   -1.2278 C   0  0  0  0  0  0  0  0  0  0  0  0
   -2.8312    0.9358   -0.8175 O   0  0  0  0  0  0  0  0  0  0  0  0
    3.2707   -0.4398    3.2940 H   0  0  0  0  0  0  0  0  0  0  0  0
    3.4321   -1.4329    1.8282 H   0  0  0  0  0  0  0  0  0  0  0  0
    2.1732   -1.9025    3.0113 H   0  0  0  0  0  0  0  0  0  0  0  0
    1.8092    0.7916    1.9307 H   0  0  0  0  0  0  0  0  0  0  0  0
   -1.1459    1.8410    0.1331 H   0  0  0  0  0  0  0  0  0  0  0  0
    0.4284    1.7862    1.0657 H   0  0  0  0  0  0  0  0  0  0  0  0
   -1.4996   -1.8624    0.1080 H   0  0  0  0  0  0  0  0  0  0  0  0
   -3.3647   -2.2111   -1.1482 H   0  0  0  0  0  0  0  0  0  0  0  0
   -4.6824   -0.9923   -0.7494 H   0  0  0  0  0  0  0  0  0  0  0  0
   -3.8458   -0.9048   -2.3089 H   0  0  0  0  0  0  0  0  0  0  0  0
  1  2  1  0
  1 11  1  0
  1 12  1  0
  1 13  1  0
  2  3  1  0
  2 14  1  0
  3  4  2  0
  3  5  1  0
  5  6  2  3
  5  7  1  0
  6 15  1  0
  6 16  1  0
  7  8  1  0
  7 17  1  0
  8  9  1  0
  8 10  2  0
  9 18  1  0
  9 19  1  0
  9 20  1  0
M  END

> <RosettaParamsInstructions>
M  ROOT 7
M  POLY_N_BB 7
M  POLY_CA_BB 5
M  POLY_C_BB 3
M  POLY_O_BB 4
M  POLY_IGNORE 1 10 9 14 11 12 13 18 19 20
M  POLY_UPPER 2
M  POLY_LOWER 8
M  POLY_CHG 0
M  POLY_PROPERTIES PROTEIN POLYMER ALPHA_AA ALIPHATIC
M  END

$$$$
DHA_new
     RDKit          3D

 20 19  0  0  0  0  0  0  0  0999 V2000
    2.6341   -1.0967    2.5786 C   0  0  0  0  0  0  0  0  0  0  0  0
    1.6656   -0.2059    1.8977 N   0  0  0  0  0  0  0  0  0  0  0  0
    0.5616   -0.7973    1.2958 C   0  0  0  0  0  0  0  0  0  0  0  0
    0.4301   -2.0553    1.3528 O   0  0  0  0  0  0  0  0  0  0  0  0
   -0.4561   -0.0246    0.5980 C   0  0  0  0  0  0  0  0  0  0  0  0
   -0.3370    1.2742    0.5290 C   0  0  0  0  0  0  0  0  0  0  0  0
   -1.5409   -0.7402    0.0211 N   0  0  0  0  0  0  0  0  0  0  0  0
   -2.6332   -0.2395   -0.6922 C   0  0  0  0  0  0  0  0  0  0  0  0
   -3.6832   -1.1857   -1.2230 C   0  0  0  0  0  0  0  0  0  0  0  0
   -2.7896    0.9701   -0.9176 O   0  0  0  0  0  0  0  0  0  0  0  0
    2.2845   -1.2409    3.6248 H   0  0  0  0  0  0  0  0  0  0  0  0
    3.6040   -0.6018    2.5460 H   0  0  0  0  0  0  0  0  0  0  0  0
    2.6206   -2.0581    2.0608 H   0  0  0  0  0  0  0  0  0  0  0  0
    1.8567    0.8135    1.9028 H   0  0  0  0  0  0  0  0  0  0  0  0
    0.5172    1.7707    0.9906 H   0  0  0  0  0  0  0  0  0  0  0  0
   -1.0639    1.9174    0.0208 H   0  0  0  0  0  0  0  0  0  0  0  0
   -1.5122   -1.8110    0.1545 H   0  0  0  0  0  0  0  0  0  0  0  0
   -3.1581   -2.1173   -1.5646 H   0  0  0  0  0  0  0  0  0  0  0  0
   -4.3545   -1.4914   -0.3991 H   0  0  0  0  0  0  0  0  0  0  0  0
   -4.2521   -0.7325   -2.0359 H   0  0  0  0  0  0  0  0  0  0  0  0
  1  2  1  0
  1 11  1  0
  1 12  1  0
  1 13  1  0
  2  3  1  0
  2 14  1  0
  3  4  2  0
  3  5  1  0
  5  6  2  3
  5  7  1  0
  6 15  1  0
  6 16  1  0
  7  8  1  0
  7 17  1  0
  8  9  1  0
  8 10  2  0
  9 18  1  0
  9 19  1  0
  9 20  1  0
M  END

> <RosettaParamsInstructions>
M  ROOT 7
M  POLY_N_BB 7
M  POLY_CA_BB 5
M  POLY_C_BB 3
M  POLY_O_BB 4
M  POLY_IGNORE 1 10 9 14 11 12 13 18 19 20
M  POLY_UPPER 2
M  POLY_LOWER 8
M  POLY_CHG 0
M  POLY_PROPERTIES PROTEIN POLYMER ALPHA_AA ALIPHATIC
M  END

$$$$
DHA_new
     RDKit          3D

 20 19  0  0  0  0  0  0  0  0999 V2000
    2.6007   -1.0560    2.6729 C   0  0  0  0  0  0  0  0  0  0  0  0
    1.7162   -0.2339    1.8454 N   0  0  0  0  0  0  0  0  0  0  0  0
    0.5353   -0.8123    1.3670 C   0  0  0  0  0  0  0  0  0  0  0  0
    0.2276   -2.0294    1.6410 O   0  0  0  0  0  0  0  0  0  0  0  0
   -0.4162   -0.0757    0.5321 C   0  0  0  0  0  0  0  0  0  0  0  0
   -0.1558    1.1783    0.2166 C   0  0  0  0  0  0  0  0  0  0  0  0
   -1.5828   -0.7407    0.0945 N   0  0  0  0  0  0  0  0  0  0  0  0
   -2.6166   -0.2392   -0.7011 C   0  0  0  0  0  0  0  0  0  0  0  0
   -3.7815   -1.1475   -1.0468 C   0  0  0  0  0  0  0  0  0  0  0  0
   -2.7088    0.9152   -1.1868 O   0  0  0  0  0  0  0  0  0  0  0  0
    3.3784   -1.4659    1.9751 H   0  0  0  0  0  0  0  0  0  0  0  0
    2.0101   -1.8524    3.1528 H   0  0  0  0  0  0  0  0  0  0  0  0
    3.1320   -0.4238    3.4341 H   0  0  0  0  0  0  0  0  0  0  0  0
    1.9951    0.7285    1.6497 H   0  0  0  0  0  0  0  0  0  0  0  0
    0.7335    1.7119    0.5402 H   0  0  0  0  0  0  0  0  0  0  0  0
   -0.8139    1.7774   -0.3944 H   0  0  0  0  0  0  0  0  0  0  0  0
   -1.6907   -1.7480    0.4075 H   0  0  0  0  0  0  0  0  0  0  0  0
   -3.5796   -1.6443   -2.0150 H   0  0  0  0  0  0  0  0  0  0  0  0
   -3.8776   -1.9378   -0.2722 H   0  0  0  0  0  0  0  0  0  0  0  0
   -4.7118   -0.5565   -1.1717 H   0  0  0  0  0  0  0  0  0  0  0  0
  1  2  1  0
  1 11  1  0
  1 12  1  0
  1 13  1  0
  2  3  1  0
  2 14  1  0
  3  4  2  0
  3  5  1  0
  5  6  2  3
  5  7  1  0
  6 15  1  0
  6 16  1  0
  7  8  1  0
  7 17  1  0
  8  9  1  0
  8 10  2  0
  9 18  1  0
  9 19  1  0
  9 20  1  0
M  END

> <RosettaParamsInstructions>
M  ROOT 7
M  POLY_N_BB 7
M  POLY_CA_BB 5
M  POLY_C_BB 3
M  POLY_O_BB 4
M  POLY_IGNORE 1 10 9 14 11 12 13 18 19 20
M  POLY_UPPER 2
M  POLY_LOWER 8
M  POLY_CHG 0
M  POLY_PROPERTIES PROTEIN POLYMER ALPHA_AA ALIPHATIC
M  END

$$$$
DHA_new
     RDKit          3D

 20 19  0  0  0  0  0  0  0  0999 V2000
    2.6183   -1.0437    2.6529 C   0  0  0  0  0  0  0  0  0  0  0  0
    1.6712   -0.2322    1.8707 N   0  0  0  0  0  0  0  0  0  0  0  0
    0.5349   -0.8469    1.3422 C   0  0  0  0  0  0  0  0  0  0  0  0
    0.3108   -2.0934    1.5285 O   0  0  0  0  0  0  0  0  0  0  0  0
   -0.4465   -0.0771    0.5501 C   0  0  0  0  0  0  0  0  0  0  0  0
   -0.2223    1.2082    0.3538 C   0  0  0  0  0  0  0  0  0  0  0  0
   -1.5705   -0.7714    0.0496 N   0  0  0  0  0  0  0  0  0  0  0  0
   -2.5942   -0.2374   -0.7072 C   0  0  0  0  0  0  0  0  0  0  0  0
   -3.7216   -1.1683   -1.1487 C   0  0  0  0  0  0  0  0  0  0  0  0
   -2.7144    0.9339   -1.0823 O   0  0  0  0  0  0  0  0  0  0  0  0
    2.0578   -1.7653    3.3022 H   0  0  0  0  0  0  0  0  0  0  0  0
    3.1794   -0.3651    3.3158 H   0  0  0  0  0  0  0  0  0  0  0  0
    3.2381   -1.5939    1.9345 H   0  0  0  0  0  0  0  0  0  0  0  0
    1.8686    0.7663    1.7322 H   0  0  0  0  0  0  0  0  0  0  0  0
   -0.9452    1.7706   -0.2285 H   0  0  0  0  0  0  0  0  0  0  0  0
    0.6342    1.7579    0.7298 H   0  0  0  0  0  0  0  0  0  0  0  0
   -1.6214   -1.8113    0.2873 H   0  0  0  0  0  0  0  0  0  0  0  0
   -3.5669   -1.3450   -2.2247 H   0  0  0  0  0  0  0  0  0  0  0  0
   -3.6699   -2.1164   -0.5906 H   0  0  0  0  0  0  0  0  0  0  0  0
   -4.6469   -0.6218   -0.9266 H   0  0  0  0  0  0  0  0  0  0  0  0
  1  2  1  0
  1 11  1  0
  1 12  1  0
  1 13  1  0
  2  3  1  0
  2 14  1  0
  3  4  2  0
  3  5  1  0
  5  6  2  3
  5  7  1  0
  6 15  1  0
  6 16  1  0
  7  8  1  0
  7 17  1  0
  8  9  1  0
  8 10  2  0
  9 18  1  0
  9 19  1  0
  9 20  1  0
M  END

> <RosettaParamsInstructions>
M  ROOT 7
M  POLY_N_BB 7
M  POLY_CA_BB 5
M  POLY_C_BB 3
M  POLY_O_BB 4
M  POLY_IGNORE 1 10 9 14 11 12 13 18 19 20
M  POLY_UPPER 2
M  POLY_LOWER 8
M  POLY_CHG 0
M  POLY_PROPERTIES PROTEIN POLYMER ALPHA_AA ALIPHATIC
M  END

$$$$
DHA_new
     RDKit          3D

 20 19  0  0  0  0  0  0  0  0999 V2000
    2.6792   -1.0522    2.5976 C   0  0  0  0  0  0  0  0  0  0  0  0
    1.6989   -0.2404    1.8518 N   0  0  0  0  0  0  0  0  0  0  0  0
    0.5409   -0.8301    1.3027 C   0  0  0  0  0  0  0  0  0  0  0  0
    0.3718   -2.0820    1.4725 O   0  0  0  0  0  0  0  0  0  0  0  0
   -0.4682   -0.0919    0.5558 C   0  0  0  0  0  0  0  0  0  0  0  0
   -0.3091    1.1921    0.3734 C   0  0  0  0  0  0  0  0  0  0  0  0
   -1.5706   -0.7869    0.0618 N   0  0  0  0  0  0  0  0  0  0  0  0
   -2.6223   -0.2356   -0.6698 C   0  0  0  0  0  0  0  0  0  0  0  0
   -3.7455   -1.1581   -1.1273 C   0  0  0  0  0  0  0  0  0  0  0  0
   -2.7808    0.9581   -1.0182 O   0  0  0  0  0  0  0  0  0  0  0  0
    2.2995   -2.0998    2.6667 H   0  0  0  0  0  0  0  0  0  0  0  0
    2.8439   -0.6424    3.6123 H   0  0  0  0  0  0  0  0  0  0  0  0
    3.6361   -1.0990    2.0687 H   0  0  0  0  0  0  0  0  0  0  0  0
    1.8943    0.7687    1.7494 H   0  0  0  0  0  0  0  0  0  0  0  0
    0.5613    1.7417    0.7633 H   0  0  0  0  0  0  0  0  0  0  0  0
   -0.9858    1.8579   -0.1640 H   0  0  0  0  0  0  0  0  0  0  0  0
   -1.6243   -1.8348    0.2551 H   0  0  0  0  0  0  0  0  0  0  0  0
   -4.6877   -0.6294   -0.8714 H   0  0  0  0  0  0  0  0  0  0  0  0
   -3.7106   -2.0873   -0.5343 H   0  0  0  0  0  0  0  0  0  0  0  0
   -3.6277   -1.3007   -2.2054 H   0  0  0  0  0  0  0  0  0  0  0  0
  1  2  1  0
  1 11  1  0
  1 12  1  0
  1 13  1  0
  2  3  1  0
  2 14  1  0
  3  4  2  0
  3  5  1  0
  5  6  2  3
  5  7  1  0
  6 15  1  0
  6 16  1  0
  7  8  1  0
  7 17  1  0
  8  9  1  0
  8 10  2  0
  9 18  1  0
  9 19  1  0
  9 20  1  0
M  END

> <RosettaParamsInstructions>
M  ROOT 7
M  POLY_N_BB 7
M  POLY_CA_BB 5
M  POLY_C_BB 3
M  POLY_O_BB 4
M  POLY_IGNORE 1 10 9 14 11 12 13 18 19 20
M  POLY_UPPER 2
M  POLY_LOWER 8
M  POLY_CHG 0
M  POLY_PROPERTIES PROTEIN POLYMER ALPHA_AA ALIPHATIC
M  END

$$$$
DHA_new
     RDKit          3D

 20 19  0  0  0  0  0  0  0  0999 V2000
    2.6119   -1.0756    2.6521 C   0  0  0  0  0  0  0  0  0  0  0  0
    1.6996   -0.2159    1.8807 N   0  0  0  0  0  0  0  0  0  0  0  0
    0.5478   -0.7669    1.3308 C   0  0  0  0  0  0  0  0  0  0  0  0
    0.3178   -2.0045    1.5131 O   0  0  0  0  0  0  0  0  0  0  0  0
   -0.4383   -0.0054    0.5404 C   0  0  0  0  0  0  0  0  0  0  0  0
   -0.2591    1.2762    0.3162 C   0  0  0  0  0  0  0  0  0  0  0  0
   -1.5594   -0.7291    0.0537 N   0  0  0  0  0  0  0  0  0  0  0  0
   -2.6283   -0.2460   -0.7143 C   0  0  0  0  0  0  0  0  0  0  0  0
   -3.7310   -1.1753   -1.1367 C   0  0  0  0  0  0  0  0  0  0  0  0
   -2.7398    0.9341   -1.0872 O   0  0  0  0  0  0  0  0  0  0  0  0
    2.7843   -0.6231    3.6378 H   0  0  0  0  0  0  0  0  0  0  0  0
    2.1532   -2.0675    2.8057 H   0  0  0  0  0  0  0  0  0  0  0  0
    3.5586   -1.2353    2.0875 H   0  0  0  0  0  0  0  0  0  0  0  0
    1.9619    0.7677    1.7836 H   0  0  0  0  0  0  0  0  0  0  0  0
   -0.9533    1.8549   -0.2513 H   0  0  0  0  0  0  0  0  0  0  0  0
    0.6464    1.7444    0.7394 H   0  0  0  0  0  0  0  0  0  0  0  0
   -1.6148   -1.7723    0.2907 H   0  0  0  0  0  0  0  0  0  0  0  0
   -3.4597   -1.7070   -2.0720 H   0  0  0  0  0  0  0  0  0  0  0  0
   -3.8407   -1.9777   -0.3514 H   0  0  0  0  0  0  0  0  0  0  0  0
   -4.6637   -0.6281   -1.2779 H   0  0  0  0  0  0  0  0  0  0  0  0
  1  2  1  0
  1 11  1  0
  1 12  1  0
  1 13  1  0
  2  3  1  0
  2 14  1  0
  3  4  2  0
  3  5  1  0
  5  6  2  3
  5  7  1  0
  6 15  1  0
  6 16  1  0
  7  8  1  0
  7 17  1  0
  8  9  1  0
  8 10  2  0
  9 18  1  0
  9 19  1  0
  9 20  1  0
M  END

> <RosettaParamsInstructions>
M  ROOT 7
M  POLY_N_BB 7
M  POLY_CA_BB 5
M  POLY_C_BB 3
M  POLY_O_BB 4
M  POLY_IGNORE 1 10 9 14 11 12 13 18 19 20
M  POLY_UPPER 2
M  POLY_LOWER 8
M  POLY_CHG 0
M  POLY_PROPERTIES PROTEIN POLYMER ALPHA_AA ALIPHATIC
M  END

$$$$
DHA_new
     RDKit          3D

 20 19  0  0  0  0  0  0  0  0999 V2000
    2.2031   -1.6047    2.5505 C   0  0  0  0  0  0  0  0  0  0  0  0
    1.0554   -1.2038    1.7499 N   0  0  0  0  0  0  0  0  0  0  0  0
    0.8583    0.0948    1.2786 C   0  0  0  0  0  0  0  0  0  0  0  0
    1.7279    0.9569    1.5687 O   0  0  0  0  0  0  0  0  0  0  0  0
   -0.2908    0.4867    0.4795 C   0  0  0  0  0  0  0  0  0  0  0  0
   -0.3902    1.7693    0.0714 C   0  0  0  0  0  0  0  0  0  0  0  0
   -1.2811   -0.4457    0.1358 N   0  0  0  0  0  0  0  0  0  0  0  0
   -2.4437   -0.2456   -0.6193 C   0  0  0  0  0  0  0  0  0  0  0  0
   -3.3622   -1.4077   -0.8575 C   0  0  0  0  0  0  0  0  0  0  0  0
   -2.8114    0.8283   -1.1325 O   0  0  0  0  0  0  0  0  0  0  0  0
    1.9292   -2.4099    3.2493 H   0  0  0  0  0  0  0  0  0  0  0  0
    3.0624   -1.9099    1.9222 H   0  0  0  0  0  0  0  0  0  0  0  0
    2.4634   -0.6950    3.1667 H   0  0  0  0  0  0  0  0  0  0  0  0
    0.3800   -1.9551    1.5468 H   0  0  0  0  0  0  0  0  0  0  0  0
   -1.1738    2.1698   -0.5096 H   0  0  0  0  0  0  0  0  0  0  0  0
    0.4091    2.4662    0.3641 H   0  0  0  0  0  0  0  0  0  0  0  0
   -1.1490   -1.4481    0.4875 H   0  0  0  0  0  0  0  0  0  0  0  0
   -3.9319   -1.2894   -1.7946 H   0  0  0  0  0  0  0  0  0  0  0  0
   -2.7569   -2.3392   -0.8783 H   0  0  0  0  0  0  0  0  0  0  0  0
   -4.1041   -1.4701   -0.0385 H   0  0  0  0  0  0  0  0  0  0  0  0
  1  2  1  0
  1 11  1  0
  1 12  1  0
  1 13  1  0
  2  3  1  0
  2 14  1  0
  3  4  2  0
  3  5  1  0
  5  6  2  3
  5  7  1  0
  6 15  1  0
  6 16  1  0
  7  8  1  0
  7 17  1  0
  8  9  1  0
  8 10  2  0
  9 18  1  0
  9 19  1  0
  9 20  1  0
M  END

> <RosettaParamsInstructions>
M  ROOT 7
M  POLY_N_BB 7
M  POLY_CA_BB 5
M  POLY_C_BB 3
M  POLY_O_BB 4
M  POLY_IGNORE 1 10 9 14 11 12 13 18 19 20
M  POLY_UPPER 2
M  POLY_LOWER 8
M  POLY_CHG 0
M  POLY_PROPERTIES PROTEIN POLYMER ALPHA_AA ALIPHATIC
M  END

$$$$
DHA_new
     RDKit          3D

 20 19  0  0  0  0  0  0  0  0999 V2000
    2.6600   -1.0913    2.5809 C   0  0  0  0  0  0  0  0  0  0  0  0
    1.7151   -0.1961    1.8795 N   0  0  0  0  0  0  0  0  0  0  0  0
    0.5820   -0.7878    1.3091 C   0  0  0  0  0  0  0  0  0  0  0  0
    0.4098   -2.0488    1.4129 O   0  0  0  0  0  0  0  0  0  0  0  0
   -0.4765   -0.0678    0.5694 C   0  0  0  0  0  0  0  0  0  0  0  0
   -0.3510    1.2235    0.4332 C   0  0  0  0  0  0  0  0  0  0  0  0
   -1.5657   -0.7907    0.0462 N   0  0  0  0  0  0  0  0  0  0  0  0
   -2.6181   -0.2397   -0.6625 C   0  0  0  0  0  0  0  0  0  0  0  0
   -3.7096   -1.1882   -1.1504 C   0  0  0  0  0  0  0  0  0  0  0  0
   -2.7949    0.9433   -0.9590 O   0  0  0  0  0  0  0  0  0  0  0  0
    3.1909   -0.4628    3.3046 H   0  0  0  0  0  0  0  0  0  0  0  0
    2.1001   -1.9130    3.0735 H   0  0  0  0  0  0  0  0  0  0  0  0
    3.3606   -1.5252    1.8581 H   0  0  0  0  0  0  0  0  0  0  0  0
    1.8946    0.8116    1.8212 H   0  0  0  0  0  0  0  0  0  0  0  0
   -1.0627    1.8368   -0.0852 H   0  0  0  0  0  0  0  0  0  0  0  0
    0.5188    1.7624    0.8573 H   0  0  0  0  0  0  0  0  0  0  0  0
   -1.5917   -1.8448    0.2023 H   0  0  0  0  0  0  0  0  0  0  0  0
   -3.5996   -1.2028   -2.2445 H   0  0  0  0  0  0  0  0  0  0  0  0
   -4.6599   -0.6939   -0.8372 H   0  0  0  0  0  0  0  0  0  0  0  0
   -3.6087   -2.1767   -0.6688 H   0  0  0  0  0  0  0  0  0  0  0  0
  1  2  1  0
  1 11  1  0
  1 12  1  0
  1 13  1  0
  2  3  1  0
  2 14  1  0
  3  4  2  0
  3  5  1  0
  5  6  2  3
  5  7  1  0
  6 15  1  0
  6 16  1  0
  7  8  1  0
  7 17  1  0
  8  9  1  0
  8 10  2  0
  9 18  1  0
  9 19  1  0
  9 20  1  0
M  END

> <RosettaParamsInstructions>
M  ROOT 7
M  POLY_N_BB 7
M  POLY_CA_BB 5
M  POLY_C_BB 3
M  POLY_O_BB 4
M  POLY_IGNORE 1 10 9 14 11 12 13 18 19 20
M  POLY_UPPER 2
M  POLY_LOWER 8
M  POLY_CHG 0
M  POLY_PROPERTIES PROTEIN POLYMER ALPHA_AA ALIPHATIC
M  END

$$$$
DHA_new
     RDKit          3D

 20 19  0  0  0  0  0  0  0  0999 V2000
    2.6650   -1.0605    2.5815 C   0  0  0  0  0  0  0  0  0  0  0  0
    1.6798   -0.2338    1.8569 N   0  0  0  0  0  0  0  0  0  0  0  0
    0.5448   -0.8219    1.2949 C   0  0  0  0  0  0  0  0  0  0  0  0
    0.3981   -2.0740    1.4303 O   0  0  0  0  0  0  0  0  0  0  0  0
   -0.4630   -0.0490    0.5667 C   0  0  0  0  0  0  0  0  0  0  0  0
   -0.3156    1.2346    0.4261 C   0  0  0  0  0  0  0  0  0  0  0  0
   -1.5604   -0.7717    0.0505 N   0  0  0  0  0  0  0  0  0  0  0  0
   -2.6403   -0.2370   -0.6778 C   0  0  0  0  0  0  0  0  0  0  0  0
   -3.7117   -1.1867   -1.1386 C   0  0  0  0  0  0  0  0  0  0  0  0
   -2.7552    0.9650   -0.9579 O   0  0  0  0  0  0  0  0  0  0  0  0
    2.1666   -2.0111    2.9230 H   0  0  0  0  0  0  0  0  0  0  0  0
    3.0467   -0.4942    3.4306 H   0  0  0  0  0  0  0  0  0  0  0  0
    3.4686   -1.3319    1.8934 H   0  0  0  0  0  0  0  0  0  0  0  0
    1.9026    0.7612    1.8117 H   0  0  0  0  0  0  0  0  0  0  0  0
    0.5592    1.7606    0.8465 H   0  0  0  0  0  0  0  0  0  0  0  0
   -0.9850    1.9058   -0.0854 H   0  0  0  0  0  0  0  0  0  0  0  0
   -1.6176   -1.8355    0.2050 H   0  0  0  0  0  0  0  0  0  0  0  0
   -3.4780   -2.2264   -0.8634 H   0  0  0  0  0  0  0  0  0  0  0  0
   -3.8649   -1.0537   -2.2230 H   0  0  0  0  0  0  0  0  0  0  0  0
   -4.6460   -0.8920   -0.6300 H   0  0  0  0  0  0  0  0  0  0  0  0
  1  2  1  0
  1 11  1  0
  1 12  1  0
  1 13  1  0
  2  3  1  0
  2 14  1  0
  3  4  2  0
  3  5  1  0
  5  6  2  3
  5  7  1  0
  6 15  1  0
  6 16  1  0
  7  8  1  0
  7 17  1  0
  8  9  1  0
  8 10  2  0
  9 18  1  0
  9 19  1  0
  9 20  1  0
M  END

> <RosettaParamsInstructions>
M  ROOT 7
M  POLY_N_BB 7
M  POLY_CA_BB 5
M  POLY_C_BB 3
M  POLY_O_BB 4
M  POLY_IGNORE 1 10 9 14 11 12 13 18 19 20
M  POLY_UPPER 2
M  POLY_LOWER 8
M  POLY_CHG 0
M  POLY_PROPERTIES PROTEIN POLYMER ALPHA_AA ALIPHATIC
M  END

$$$$
DHA_new
     RDKit          3D

 20 19  0  0  0  0  0  0  0  0999 V2000
    2.6413   -1.0757    2.5767 C   0  0  0  0  0  0  0  0  0  0  0  0
    1.6846   -0.2309    1.8635 N   0  0  0  0  0  0  0  0  0  0  0  0
    0.5530   -0.8231    1.3062 C   0  0  0  0  0  0  0  0  0  0  0  0
    0.3851   -2.0740    1.4327 O   0  0  0  0  0  0  0  0  0  0  0  0
   -0.4462   -0.0523    0.5813 C   0  0  0  0  0  0  0  0  0  0  0  0
   -0.2847    1.2514    0.4416 C   0  0  0  0  0  0  0  0  0  0  0  0
   -1.5547   -0.7654    0.0593 N   0  0  0  0  0  0  0  0  0  0  0  0
   -2.6434   -0.2906   -0.6649 C   0  0  0  0  0  0  0  0  0  0  0  0
   -3.7453   -1.1857   -1.1503 C   0  0  0  0  0  0  0  0  0  0  0  0
   -2.7728    0.9079   -0.9564 O   0  0  0  0  0  0  0  0  0  0  0  0
    2.5463   -2.1005    2.2213 H   0  0  0  0  0  0  0  0  0  0  0  0
    3.6979   -0.7480    2.3596 H   0  0  0  0  0  0  0  0  0  0  0  0
    2.4758   -0.9463    3.6673 H   0  0  0  0  0  0  0  0  0  0  0  0
    1.9006    0.7758    1.8092 H   0  0  0  0  0  0  0  0  0  0  0  0
   -0.9990    1.8592   -0.0868 H   0  0  0  0  0  0  0  0  0  0  0  0
    0.5782    1.7632    0.8557 H   0  0  0  0  0  0  0  0  0  0  0  0
   -1.5498   -1.8257    0.2529 H   0  0  0  0  0  0  0  0  0  0  0  0
   -4.6850   -0.8741   -0.6637 H   0  0  0  0  0  0  0  0  0  0  0  0
   -3.5560   -2.2331   -0.9194 H   0  0  0  0  0  0  0  0  0  0  0  0
   -3.8323   -0.9843   -2.2449 H   0  0  0  0  0  0  0  0  0  0  0  0
  1  2  1  0
  1 11  1  0
  1 12  1  0
  1 13  1  0
  2  3  1  0
  2 14  1  0
  3  4  2  0
  3  5  1  0
  5  6  2  3
  5  7  1  0
  6 15  1  0
  6 16  1  0
  7  8  1  0
  7 17  1  0
  8  9  1  0
  8 10  2  0
  9 18  1  0
  9 19  1  0
  9 20  1  0
M  END

> <RosettaParamsInstructions>
M  ROOT 7
M  POLY_N_BB 7
M  POLY_CA_BB 5
M  POLY_C_BB 3
M  POLY_O_BB 4
M  POLY_IGNORE 1 10 9 14 11 12 13 18 19 20
M  POLY_UPPER 2
M  POLY_LOWER 8
M  POLY_CHG 0
M  POLY_PROPERTIES PROTEIN POLYMER ALPHA_AA ALIPHATIC
M  END

$$$$
DHA_new
     RDKit          3D

 20 19  0  0  0  0  0  0  0  0999 V2000
    2.6615   -1.0773    2.5534 C   0  0  0  0  0  0  0  0  0  0  0  0
    1.6482   -0.2166    1.8998 N   0  0  0  0  0  0  0  0  0  0  0  0
    0.5596   -0.8235    1.2786 C   0  0  0  0  0  0  0  0  0  0  0  0
    0.4649   -2.0769    1.2880 O   0  0  0  0  0  0  0  0  0  0  0  0
   -0.4829   -0.0592    0.6126 C   0  0  0  0  0  0  0  0  0  0  0  0
   -0.3847    1.2491    0.6024 C   0  0  0  0  0  0  0  0  0  0  0  0
   -1.5425   -0.7722    0.0144 N   0  0  0  0  0  0  0  0  0  0  0  0
   -2.6547   -0.2429   -0.6811 C   0  0  0  0  0  0  0  0  0  0  0  0
   -3.6959   -1.1734   -1.2568 C   0  0  0  0  0  0  0  0  0  0  0  0
   -2.8429    0.9767   -0.8585 O   0  0  0  0  0  0  0  0  0  0  0  0
    2.8413   -0.6438    3.5580 H   0  0  0  0  0  0  0  0  0  0  0  0
    3.6043   -1.0131    1.9714 H   0  0  0  0  0  0  0  0  0  0  0  0
    2.2722   -2.1147    2.6359 H   0  0  0  0  0  0  0  0  0  0  0  0
    1.8705    0.7959    1.9796 H   0  0  0  0  0  0  0  0  0  0  0  0
   -1.1246    1.8608    0.1260 H   0  0  0  0  0  0  0  0  0  0  0  0
    0.4544    1.7599    1.0790 H   0  0  0  0  0  0  0  0  0  0  0  0
   -1.4965   -1.8528    0.0991 H   0  0  0  0  0  0  0  0  0  0  0  0
   -3.5551   -2.1570   -0.8000 H   0  0  0  0  0  0  0  0  0  0  0  0
   -3.5090   -1.2858   -2.3449 H   0  0  0  0  0  0  0  0  0  0  0  0
   -4.6945   -0.7854   -1.0161 H   0  0  0  0  0  0  0  0  0  0  0  0
  1  2  1  0
  1 11  1  0
  1 12  1  0
  1 13  1  0
  2  3  1  0
  2 14  1  0
  3  4  2  0
  3  5  1  0
  5  6  2  3
  5  7  1  0
  6 15  1  0
  6 16  1  0
  7  8  1  0
  7 17  1  0
  8  9  1  0
  8 10  2  0
  9 18  1  0
  9 19  1  0
  9 20  1  0
M  END

> <RosettaParamsInstructions>
M  ROOT 7
M  POLY_N_BB 7
M  POLY_CA_BB 5
M  POLY_C_BB 3
M  POLY_O_BB 4
M  POLY_IGNORE 1 10 9 14 11 12 13 18 19 20
M  POLY_UPPER 2
M  POLY_LOWER 8
M  POLY_CHG 0
M  POLY_PROPERTIES PROTEIN POLYMER ALPHA_AA ALIPHATIC
M  END

$$$$
DHA_new
     RDKit          3D

 20 19  0  0  0  0  0  0  0  0999 V2000
    2.6963   -1.0740    2.5818 C   0  0  0  0  0  0  0  0  0  0  0  0
    1.6999   -0.2393    1.8634 N   0  0  0  0  0  0  0  0  0  0  0  0
    0.5691   -0.8311    1.2997 C   0  0  0  0  0  0  0  0  0  0  0  0
    0.4177   -2.0915    1.4173 O   0  0  0  0  0  0  0  0  0  0  0  0
   -0.4519   -0.0846    0.5814 C   0  0  0  0  0  0  0  0  0  0  0  0
   -0.3235    1.2106    0.4447 C   0  0  0  0  0  0  0  0  0  0  0  0
   -1.5743   -0.7448    0.0338 N   0  0  0  0  0  0  0  0  0  0  0  0
   -2.6545   -0.2475   -0.6783 C   0  0  0  0  0  0  0  0  0  0  0  0
   -3.7513   -1.1826   -1.1660 C   0  0  0  0  0  0  0  0  0  0  0  0
   -2.7862    0.9687   -0.9539 O   0  0  0  0  0  0  0  0  0  0  0  0
    3.6440   -1.0112    2.0443 H   0  0  0  0  0  0  0  0  0  0  0  0
    2.7245   -0.6860    3.6169 H   0  0  0  0  0  0  0  0  0  0  0  0
    2.3427   -2.1166    2.6317 H   0  0  0  0  0  0  0  0  0  0  0  0
    1.8672    0.7845    1.7938 H   0  0  0  0  0  0  0  0  0  0  0  0
    0.5311    1.7476    0.8561 H   0  0  0  0  0  0  0  0  0  0  0  0
   -1.0178    1.8721   -0.0689 H   0  0  0  0  0  0  0  0  0  0  0  0
   -1.5675   -1.8107    0.2119 H   0  0  0  0  0  0  0  0  0  0  0  0
   -4.7087   -0.6046   -1.0459 H   0  0  0  0  0  0  0  0  0  0  0  0
   -3.7139   -2.0629   -0.5186 H   0  0  0  0  0  0  0  0  0  0  0  0
   -3.5493   -1.4484   -2.2044 H   0  0  0  0  0  0  0  0  0  0  0  0
  1  2  1  0
  1 11  1  0
  1 12  1  0
  1 13  1  0
  2  3  1  0
  2 14  1  0
  3  4  2  0
  3  5  1  0
  5  6  2  3
  5  7  1  0
  6 15  1  0
  6 16  1  0
  7  8  1  0
  7 17  1  0
  8  9  1  0
  8 10  2  0
  9 18  1  0
  9 19  1  0
  9 20  1  0
M  END

> <RosettaParamsInstructions>
M  ROOT 7
M  POLY_N_BB 7
M  POLY_CA_BB 5
M  POLY_C_BB 3
M  POLY_O_BB 4
M  POLY_IGNORE 1 10 9 14 11 12 13 18 19 20
M  POLY_UPPER 2
M  POLY_LOWER 8
M  POLY_CHG 0
M  POLY_PROPERTIES PROTEIN POLYMER ALPHA_AA ALIPHATIC
M  END

$$$$
DHA_new
     RDKit          3D

 20 19  0  0  0  0  0  0  0  0999 V2000
    2.7036   -1.0200    2.5684 C   0  0  0  0  0  0  0  0  0  0  0  0
    1.6809   -0.2384    1.8595 N   0  0  0  0  0  0  0  0  0  0  0  0
    0.5641   -0.8466    1.3034 C   0  0  0  0  0  0  0  0  0  0  0  0
    0.4168   -2.1168    1.4077 O   0  0  0  0  0  0  0  0  0  0  0  0
   -0.4782   -0.0909    0.5870 C   0  0  0  0  0  0  0  0  0  0  0  0
   -0.3611    1.2083    0.4609 C   0  0  0  0  0  0  0  0  0  0  0  0
   -1.5694   -0.8014    0.0610 N   0  0  0  0  0  0  0  0  0  0  0  0
   -2.6369   -0.2658   -0.6373 C   0  0  0  0  0  0  0  0  0  0  0  0
   -3.7603   -1.1473   -1.1564 C   0  0  0  0  0  0  0  0  0  0  0  0
   -2.7355    0.9560   -0.8768 O   0  0  0  0  0  0  0  0  0  0  0  0
    2.1936   -1.9562    2.9020 H   0  0  0  0  0  0  0  0  0  0  0  0
    3.4688   -1.3275    1.8271 H   0  0  0  0  0  0  0  0  0  0  0  0
    3.1025   -0.4374    3.4095 H   0  0  0  0  0  0  0  0  0  0  0  0
    1.8702    0.7678    1.8189 H   0  0  0  0  0  0  0  0  0  0  0  0
   -1.0377    1.8659   -0.0291 H   0  0  0  0  0  0  0  0  0  0  0  0
    0.5203    1.6866    0.8999 H   0  0  0  0  0  0  0  0  0  0  0  0
   -1.5741   -1.8499    0.2148 H   0  0  0  0  0  0  0  0  0  0  0  0
   -3.4063   -2.1969   -1.0811 H   0  0  0  0  0  0  0  0  0  0  0  0
   -4.6814   -0.9491   -0.5843 H   0  0  0  0  0  0  0  0  0  0  0  0
   -3.8862   -0.8925   -2.2143 H   0  0  0  0  0  0  0  0  0  0  0  0
  1  2  1  0
  1 11  1  0
  1 12  1  0
  1 13  1  0
  2  3  1  0
  2 14  1  0
  3  4  2  0
  3  5  1  0
  5  6  2  3
  5  7  1  0
  6 15  1  0
  6 16  1  0
  7  8  1  0
  7 17  1  0
  8  9  1  0
  8 10  2  0
  9 18  1  0
  9 19  1  0
  9 20  1  0
M  END

> <RosettaParamsInstructions>
M  ROOT 7
M  POLY_N_BB 7
M  POLY_CA_BB 5
M  POLY_C_BB 3
M  POLY_O_BB 4
M  POLY_IGNORE 1 10 9 14 11 12 13 18 19 20
M  POLY_UPPER 2
M  POLY_LOWER 8
M  POLY_CHG 0
M  POLY_PROPERTIES PROTEIN POLYMER ALPHA_AA ALIPHATIC
M  END

$$$$
DHA_new
     RDKit          3D

 20 19  0  0  0  0  0  0  0  0999 V2000
    2.6669   -1.0814    2.5577 C   0  0  0  0  0  0  0  0  0  0  0  0
    1.6696   -0.2214    1.9065 N   0  0  0  0  0  0  0  0  0  0  0  0
    0.5686   -0.8145    1.2832 C   0  0  0  0  0  0  0  0  0  0  0  0
    0.4910   -2.0925    1.3158 O   0  0  0  0  0  0  0  0  0  0  0  0
   -0.4695   -0.0506    0.6135 C   0  0  0  0  0  0  0  0  0  0  0  0
   -0.3986    1.2497    0.5755 C   0  0  0  0  0  0  0  0  0  0  0  0
   -1.5325   -0.7798    0.0214 N   0  0  0  0  0  0  0  0  0  0  0  0
   -2.6390   -0.2417   -0.6753 C   0  0  0  0  0  0  0  0  0  0  0  0
   -3.6738   -1.1732   -1.2379 C   0  0  0  0  0  0  0  0  0  0  0  0
   -2.8586    0.9727   -0.8821 O   0  0  0  0  0  0  0  0  0  0  0  0
    2.4842   -1.0080    3.6377 H   0  0  0  0  0  0  0  0  0  0  0  0
    3.6828   -0.7198    2.3331 H   0  0  0  0  0  0  0  0  0  0  0  0
    2.5921   -2.1225    2.2394 H   0  0  0  0  0  0  0  0  0  0  0  0
    1.8220    0.7994    1.9347 H   0  0  0  0  0  0  0  0  0  0  0  0
    0.4416    1.7791    1.0464 H   0  0  0  0  0  0  0  0  0  0  0  0
   -1.1169    1.9215    0.1033 H   0  0  0  0  0  0  0  0  0  0  0  0
   -1.4994   -1.8528    0.1077 H   0  0  0  0  0  0  0  0  0  0  0  0
   -3.8962   -0.9546   -2.2921 H   0  0  0  0  0  0  0  0  0  0  0  0
   -4.6069   -1.0316   -0.6573 H   0  0  0  0  0  0  0  0  0  0  0  0
   -3.3338   -2.2303   -1.1904 H   0  0  0  0  0  0  0  0  0  0  0  0
  1  2  1  0
  1 11  1  0
  1 12  1  0
  1 13  1  0
  2  3  1  0
  2 14  1  0
  3  4  2  0
  3  5  1  0
  5  6  2  3
  5  7  1  0
  6 15  1  0
  6 16  1  0
  7  8  1  0
  7 17  1  0
  8  9  1  0
  8 10  2  0
  9 18  1  0
  9 19  1  0
  9 20  1  0
M  END

> <RosettaParamsInstructions>
M  ROOT 7
M  POLY_N_BB 7
M  POLY_CA_BB 5
M  POLY_C_BB 3
M  POLY_O_BB 4
M  POLY_IGNORE 1 10 9 14 11 12 13 18 19 20
M  POLY_UPPER 2
M  POLY_LOWER 8
M  POLY_CHG 0
M  POLY_PROPERTIES PROTEIN POLYMER ALPHA_AA ALIPHATIC
M  END

$$$$
DHA_new
     RDKit          3D

 20 19  0  0  0  0  0  0  0  0999 V2000
    2.6280   -1.0369    2.6395 C   0  0  0  0  0  0  0  0  0  0  0  0
    1.6379   -0.2243    1.9035 N   0  0  0  0  0  0  0  0  0  0  0  0
    0.5210   -0.8396    1.3069 C   0  0  0  0  0  0  0  0  0  0  0  0
    0.3838   -2.0953    1.4136 O   0  0  0  0  0  0  0  0  0  0  0  0
   -0.4764   -0.0779    0.5741 C   0  0  0  0  0  0  0  0  0  0  0  0
   -0.3438    1.2089    0.4598 C   0  0  0  0  0  0  0  0  0  0  0  0
   -1.5508   -0.7895    0.0185 N   0  0  0  0  0  0  0  0  0  0  0  0
   -2.6048   -0.2360   -0.7175 C   0  0  0  0  0  0  0  0  0  0  0  0
   -3.6846   -1.1704   -1.2424 C   0  0  0  0  0  0  0  0  0  0  0  0
   -2.7247    0.9799   -0.9771 O   0  0  0  0  0  0  0  0  0  0  0  0
    2.4627   -0.9036    3.7223 H   0  0  0  0  0  0  0  0  0  0  0  0
    3.6238   -0.7186    2.3252 H   0  0  0  0  0  0  0  0  0  0  0  0
    2.4523   -2.1037    2.4004 H   0  0  0  0  0  0  0  0  0  0  0  0
    1.8749    0.7856    1.8960 H   0  0  0  0  0  0  0  0  0  0  0  0
    0.5207    1.7372    0.9136 H   0  0  0  0  0  0  0  0  0  0  0  0
   -1.0145    1.8624   -0.0545 H   0  0  0  0  0  0  0  0  0  0  0  0
   -1.5920   -1.8572    0.1559 H   0  0  0  0  0  0  0  0  0  0  0  0
   -3.2602   -1.6089   -2.1655 H   0  0  0  0  0  0  0  0  0  0  0  0
   -3.8340   -1.9269   -0.4368 H   0  0  0  0  0  0  0  0  0  0  0  0
   -4.6257   -0.6376   -1.3948 H   0  0  0  0  0  0  0  0  0  0  0  0
  1  2  1  0
  1 11  1  0
  1 12  1  0
  1 13  1  0
  2  3  1  0
  2 14  1  0
  3  4  2  0
  3  5  1  0
  5  6  2  3
  5  7  1  0
  6 15  1  0
  6 16  1  0
  7  8  1  0
  7 17  1  0
  8  9  1  0
  8 10  2  0
  9 18  1  0
  9 19  1  0
  9 20  1  0
M  END

> <RosettaParamsInstructions>
M  ROOT 7
M  POLY_N_BB 7
M  POLY_CA_BB 5
M  POLY_C_BB 3
M  POLY_O_BB 4
M  POLY_IGNORE 1 10 9 14 11 12 13 18 19 20
M  POLY_UPPER 2
M  POLY_LOWER 8
M  POLY_CHG 0
M  POLY_PROPERTIES PROTEIN POLYMER ALPHA_AA ALIPHATIC
M  END

$$$$
DHA_new
     RDKit          3D

 20 19  0  0  0  0  0  0  0  0999 V2000
    2.7016   -1.0545    2.5640 C   0  0  0  0  0  0  0  0  0  0  0  0
    1.6687   -0.2493    1.9044 N   0  0  0  0  0  0  0  0  0  0  0  0
    0.5725   -0.8316    1.2754 C   0  0  0  0  0  0  0  0  0  0  0  0
    0.4835   -2.0938    1.2845 O   0  0  0  0  0  0  0  0  0  0  0  0
   -0.4924   -0.0704    0.5988 C   0  0  0  0  0  0  0  0  0  0  0  0
   -0.4143    1.2398    0.5810 C   0  0  0  0  0  0  0  0  0  0  0  0
   -1.5352   -0.7947    0.0086 N   0  0  0  0  0  0  0  0  0  0  0  0
   -2.6255   -0.2571   -0.6724 C   0  0  0  0  0  0  0  0  0  0  0  0
   -3.6868   -1.1931   -1.2633 C   0  0  0  0  0  0  0  0  0  0  0  0
   -2.8158    0.9705   -0.8472 O   0  0  0  0  0  0  0  0  0  0  0  0
    2.9169   -0.5667    3.5293 H   0  0  0  0  0  0  0  0  0  0  0  0
    3.5698   -1.1228    1.9095 H   0  0  0  0  0  0  0  0  0  0  0  0
    2.2542   -2.0535    2.7847 H   0  0  0  0  0  0  0  0  0  0  0  0
    1.8217    0.7707    1.9455 H   0  0  0  0  0  0  0  0  0  0  0  0
    0.4234    1.7597    1.0581 H   0  0  0  0  0  0  0  0  0  0  0  0
   -1.1299    1.8698    0.1202 H   0  0  0  0  0  0  0  0  0  0  0  0
   -1.4875   -1.8614    0.0900 H   0  0  0  0  0  0  0  0  0  0  0  0
   -3.6546   -1.1280   -2.3663 H   0  0  0  0  0  0  0  0  0  0  0  0
   -4.6638   -0.8041   -0.9156 H   0  0  0  0  0  0  0  0  0  0  0  0
   -3.5130   -2.1817   -0.8481 H   0  0  0  0  0  0  0  0  0  0  0  0
  1  2  1  0
  1 11  1  0
  1 12  1  0
  1 13  1  0
  2  3  1  0
  2 14  1  0
  3  4  2  0
  3  5  1  0
  5  6  2  3
  5  7  1  0
  6 15  1  0
  6 16  1  0
  7  8  1  0
  7 17  1  0
  8  9  1  0
  8 10  2  0
  9 18  1  0
  9 19  1  0
  9 20  1  0
M  END

> <RosettaParamsInstructions>
M  ROOT 7
M  POLY_N_BB 7
M  POLY_CA_BB 5
M  POLY_C_BB 3
M  POLY_O_BB 4
M  POLY_IGNORE 1 10 9 14 11 12 13 18 19 20
M  POLY_UPPER 2
M  POLY_LOWER 8
M  POLY_CHG 0
M  POLY_PROPERTIES PROTEIN POLYMER ALPHA_AA ALIPHATIC
M  END

$$$$
DHA_new
     RDKit          3D

 20 19  0  0  0  0  0  0  0  0999 V2000
    2.6741   -1.0608    2.5528 C   0  0  0  0  0  0  0  0  0  0  0  0
    1.7041   -0.2085    1.8502 N   0  0  0  0  0  0  0  0  0  0  0  0
    0.5791   -0.8104    1.2971 C   0  0  0  0  0  0  0  0  0  0  0  0
    0.4182   -2.0598    1.4096 O   0  0  0  0  0  0  0  0  0  0  0  0
   -0.4692   -0.0675    0.5671 C   0  0  0  0  0  0  0  0  0  0  0  0
   -0.3459    1.2168    0.4270 C   0  0  0  0  0  0  0  0  0  0  0  0
   -1.5853   -0.7981    0.0404 N   0  0  0  0  0  0  0  0  0  0  0  0
   -2.6449   -0.2586   -0.6627 C   0  0  0  0  0  0  0  0  0  0  0  0
   -3.7458   -1.1647   -1.1516 C   0  0  0  0  0  0  0  0  0  0  0  0
   -2.7801    0.9332   -0.9374 O   0  0  0  0  0  0  0  0  0  0  0  0
    3.7063   -0.6803    2.4378 H   0  0  0  0  0  0  0  0  0  0  0  0
    2.4259   -1.0117    3.6395 H   0  0  0  0  0  0  0  0  0  0  0  0
    2.5774   -2.1177    2.2627 H   0  0  0  0  0  0  0  0  0  0  0  0
    1.9536    0.7901    1.8303 H   0  0  0  0  0  0  0  0  0  0  0  0
    0.5481    1.7030    0.8651 H   0  0  0  0  0  0  0  0  0  0  0  0
   -1.0448    1.8577   -0.0838 H   0  0  0  0  0  0  0  0  0  0  0  0
   -1.5877   -1.8602    0.2140 H   0  0  0  0  0  0  0  0  0  0  0  0
   -4.6331   -0.9686   -0.5258 H   0  0  0  0  0  0  0  0  0  0  0  0
   -3.4048   -2.2236   -1.0965 H   0  0  0  0  0  0  0  0  0  0  0  0
   -3.9517   -0.8626   -2.1949 H   0  0  0  0  0  0  0  0  0  0  0  0
  1  2  1  0
  1 11  1  0
  1 12  1  0
  1 13  1  0
  2  3  1  0
  2 14  1  0
  3  4  2  0
  3  5  1  0
  5  6  2  3
  5  7  1  0
  6 15  1  0
  6 16  1  0
  7  8  1  0
  7 17  1  0
  8  9  1  0
  8 10  2  0
  9 18  1  0
  9 19  1  0
  9 20  1  0
M  END

> <RosettaParamsInstructions>
M  ROOT 7
M  POLY_N_BB 7
M  POLY_CA_BB 5
M  POLY_C_BB 3
M  POLY_O_BB 4
M  POLY_IGNORE 1 10 9 14 11 12 13 18 19 20
M  POLY_UPPER 2
M  POLY_LOWER 8
M  POLY_CHG 0
M  POLY_PROPERTIES PROTEIN POLYMER ALPHA_AA ALIPHATIC
M  END

$$$$
DHA_new
     RDKit          3D

 20 19  0  0  0  0  0  0  0  0999 V2000
    2.6586   -1.0815    2.5843 C   0  0  0  0  0  0  0  0  0  0  0  0
    1.7059   -0.2139    1.8818 N   0  0  0  0  0  0  0  0  0  0  0  0
    0.5723   -0.7925    1.3090 C   0  0  0  0  0  0  0  0  0  0  0  0
    0.4157   -2.0496    1.4222 O   0  0  0  0  0  0  0  0  0  0  0  0
   -0.4865   -0.0586    0.5658 C   0  0  0  0  0  0  0  0  0  0  0  0
   -0.3351    1.2437    0.4422 C   0  0  0  0  0  0  0  0  0  0  0  0
   -1.5774   -0.7999    0.0448 N   0  0  0  0  0  0  0  0  0  0  0  0
   -2.6308   -0.2347   -0.6675 C   0  0  0  0  0  0  0  0  0  0  0  0
   -3.7219   -1.1573   -1.1591 C   0  0  0  0  0  0  0  0  0  0  0  0
   -2.8000    0.9633   -0.9628 O   0  0  0  0  0  0  0  0  0  0  0  0
    2.4228   -1.0945    3.6519 H   0  0  0  0  0  0  0  0  0  0  0  0
    2.5981   -2.1192    2.2080 H   0  0  0  0  0  0  0  0  0  0  0  0
    3.6802   -0.6884    2.3637 H   0  0  0  0  0  0  0  0  0  0  0  0
    1.8709    0.8073    1.8120 H   0  0  0  0  0  0  0  0  0  0  0  0
    0.5169    1.7408    0.8625 H   0  0  0  0  0  0  0  0  0  0  0  0
   -1.0327    1.8777   -0.0720 H   0  0  0  0  0  0  0  0  0  0  0  0
   -1.5753   -1.8386    0.2157 H   0  0  0  0  0  0  0  0  0  0  0  0
   -3.3464   -2.1991   -1.1957 H   0  0  0  0  0  0  0  0  0  0  0  0
   -4.5211   -1.1182   -0.4032 H   0  0  0  0  0  0  0  0  0  0  0  0
   -4.0209   -0.8389   -2.1630 H   0  0  0  0  0  0  0  0  0  0  0  0
  1  2  1  0
  1 11  1  0
  1 12  1  0
  1 13  1  0
  2  3  1  0
  2 14  1  0
  3  4  2  0
  3  5  1  0
  5  6  2  3
  5  7  1  0
  6 15  1  0
  6 16  1  0
  7  8  1  0
  7 17  1  0
  8  9  1  0
  8 10  2  0
  9 18  1  0
  9 19  1  0
  9 20  1  0
M  END

> <RosettaParamsInstructions>
M  ROOT 7
M  POLY_N_BB 7
M  POLY_CA_BB 5
M  POLY_C_BB 3
M  POLY_O_BB 4
M  POLY_IGNORE 1 10 9 14 11 12 13 18 19 20
M  POLY_UPPER 2
M  POLY_LOWER 8
M  POLY_CHG 0
M  POLY_PROPERTIES PROTEIN POLYMER ALPHA_AA ALIPHATIC
M  END

$$$$
DHA_new
     RDKit          3D

 20 19  0  0  0  0  0  0  0  0999 V2000
    2.2779   -1.5939    2.4703 C   0  0  0  0  0  0  0  0  0  0  0  0
    1.0879   -1.2330    1.7018 N   0  0  0  0  0  0  0  0  0  0  0  0
    0.8510    0.0862    1.3318 C   0  0  0  0  0  0  0  0  0  0  0  0
    1.6816    0.9777    1.6692 O   0  0  0  0  0  0  0  0  0  0  0  0
   -0.3409    0.4881    0.5551 C   0  0  0  0  0  0  0  0  0  0  0  0
   -0.4847    1.7683    0.2470 C   0  0  0  0  0  0  0  0  0  0  0  0
   -1.3133   -0.4423    0.1403 N   0  0  0  0  0  0  0  0  0  0  0  0
   -2.4813   -0.2358   -0.5883 C   0  0  0  0  0  0  0  0  0  0  0  0
   -3.3699   -1.4146   -0.9100 C   0  0  0  0  0  0  0  0  0  0  0  0
   -2.8817    0.8546   -1.0154 O   0  0  0  0  0  0  0  0  0  0  0  0
    2.0844   -2.5085    3.0773 H   0  0  0  0  0  0  0  0  0  0  0  0
    3.1037   -1.8502    1.7745 H   0  0  0  0  0  0  0  0  0  0  0  0
    2.5865   -0.7418    3.1205 H   0  0  0  0  0  0  0  0  0  0  0  0
    0.4514   -2.0004    1.4579 H   0  0  0  0  0  0  0  0  0  0  0  0
   -1.3089    2.1224   -0.3033 H   0  0  0  0  0  0  0  0  0  0  0  0
    0.2598    2.5107    0.5594 H   0  0  0  0  0  0  0  0  0  0  0  0
   -1.1013   -1.4526    0.4418 H   0  0  0  0  0  0  0  0  0  0  0  0
   -4.2141   -1.3918   -0.1891 H   0  0  0  0  0  0  0  0  0  0  0  0
   -2.7566   -2.3149   -0.8563 H   0  0  0  0  0  0  0  0  0  0  0  0
   -3.7381   -1.2803   -1.9437 H   0  0  0  0  0  0  0  0  0  0  0  0
  1  2  1  0
  1 11  1  0
  1 12  1  0
  1 13  1  0
  2  3  1  0
  2 14  1  0
  3  4  2  0
  3  5  1  0
  5  6  2  3
  5  7  1  0
  6 15  1  0
  6 16  1  0
  7  8  1  0
  7 17  1  0
  8  9  1  0
  8 10  2  0
  9 18  1  0
  9 19  1  0
  9 20  1  0
M  END

> <RosettaParamsInstructions>
M  ROOT 7
M  POLY_N_BB 7
M  POLY_CA_BB 5
M  POLY_C_BB 3
M  POLY_O_BB 4
M  POLY_IGNORE 1 10 9 14 11 12 13 18 19 20
M  POLY_UPPER 2
M  POLY_LOWER 8
M  POLY_CHG 0
M  POLY_PROPERTIES PROTEIN POLYMER ALPHA_AA ALIPHATIC
M  END

$$$$
DHA_new
     RDKit          3D

 20 19  0  0  0  0  0  0  0  0999 V2000
    2.6992   -1.0582    2.5905 C   0  0  0  0  0  0  0  0  0  0  0  0
    1.6670   -0.2566    1.9231 N   0  0  0  0  0  0  0  0  0  0  0  0
    0.5688   -0.8448    1.2977 C   0  0  0  0  0  0  0  0  0  0  0  0
    0.4440   -2.1153    1.2973 O   0  0  0  0  0  0  0  0  0  0  0  0
   -0.4811   -0.0726    0.6215 C   0  0  0  0  0  0  0  0  0  0  0  0
   -0.4056    1.2223    0.5909 C   0  0  0  0  0  0  0  0  0  0  0  0
   -1.5752   -0.7500    0.0038 N   0  0  0  0  0  0  0  0  0  0  0  0
   -2.6575   -0.2103   -0.6782 C   0  0  0  0  0  0  0  0  0  0  0  0
   -3.6842   -1.1645   -1.2390 C   0  0  0  0  0  0  0  0  0  0  0  0
   -2.9000    0.9950   -0.8946 O   0  0  0  0  0  0  0  0  0  0  0  0
    2.7010   -0.7553    3.6403 H   0  0  0  0  0  0  0  0  0  0  0  0
    3.6483   -0.8178    2.0806 H   0  0  0  0  0  0  0  0  0  0  0  0
    2.4617   -2.1323    2.4338 H   0  0  0  0  0  0  0  0  0  0  0  0
    1.8385    0.7642    1.9663 H   0  0  0  0  0  0  0  0  0  0  0  0
    0.4386    1.7231    1.0688 H   0  0  0  0  0  0  0  0  0  0  0  0
   -1.1586    1.8417    0.1021 H   0  0  0  0  0  0  0  0  0  0  0  0
   -1.5085   -1.8181    0.1066 H   0  0  0  0  0  0  0  0  0  0  0  0
   -4.5640   -1.2445   -0.5898 H   0  0  0  0  0  0  0  0  0  0  0  0
   -3.2247   -2.1643   -1.3173 H   0  0  0  0  0  0  0  0  0  0  0  0
   -3.9138   -0.7940   -2.2632 H   0  0  0  0  0  0  0  0  0  0  0  0
  1  2  1  0
  1 11  1  0
  1 12  1  0
  1 13  1  0
  2  3  1  0
  2 14  1  0
  3  4  2  0
  3  5  1  0
  5  6  2  3
  5  7  1  0
  6 15  1  0
  6 16  1  0
  7  8  1  0
  7 17  1  0
  8  9  1  0
  8 10  2  0
  9 18  1  0
  9 19  1  0
  9 20  1  0
M  END

> <RosettaParamsInstructions>
M  ROOT 7
M  POLY_N_BB 7
M  POLY_CA_BB 5
M  POLY_C_BB 3
M  POLY_O_BB 4
M  POLY_IGNORE 1 10 9 14 11 12 13 18 19 20
M  POLY_UPPER 2
M  POLY_LOWER 8
M  POLY_CHG 0
M  POLY_PROPERTIES PROTEIN POLYMER ALPHA_AA ALIPHATIC
M  END

$$$$
DHA_new
     RDKit          3D

 20 19  0  0  0  0  0  0  0  0999 V2000
    2.6815   -1.0662    2.5836 C   0  0  0  0  0  0  0  0  0  0  0  0
    1.6948   -0.2417    1.8742 N   0  0  0  0  0  0  0  0  0  0  0  0
    0.5466   -0.8072    1.2935 C   0  0  0  0  0  0  0  0  0  0  0  0
    0.4102   -2.0715    1.4167 O   0  0  0  0  0  0  0  0  0  0  0  0
   -0.4734   -0.0379    0.5736 C   0  0  0  0  0  0  0  0  0  0  0  0
   -0.2983    1.2531    0.4688 C   0  0  0  0  0  0  0  0  0  0  0  0
   -1.5768   -0.7588    0.0443 N   0  0  0  0  0  0  0  0  0  0  0  0
   -2.6680   -0.2585   -0.6738 C   0  0  0  0  0  0  0  0  0  0  0  0
   -3.7549   -1.1735   -1.1624 C   0  0  0  0  0  0  0  0  0  0  0  0
   -2.7999    0.9406   -0.9432 O   0  0  0  0  0  0  0  0  0  0  0  0
    3.4544   -1.3412    1.8485 H   0  0  0  0  0  0  0  0  0  0  0  0
    3.1077   -0.4776    3.4208 H   0  0  0  0  0  0  0  0  0  0  0  0
    2.1776   -1.9972    2.9283 H   0  0  0  0  0  0  0  0  0  0  0  0
    1.9039    0.7627    1.8350 H   0  0  0  0  0  0  0  0  0  0  0  0
    0.5661    1.7768    0.8903 H   0  0  0  0  0  0  0  0  0  0  0  0
   -1.0193    1.8636   -0.0508 H   0  0  0  0  0  0  0  0  0  0  0  0
   -1.5647   -1.8081    0.2196 H   0  0  0  0  0  0  0  0  0  0  0  0
   -3.3361   -2.2055   -1.2045 H   0  0  0  0  0  0  0  0  0  0  0  0
   -4.6107   -1.1765   -0.4582 H   0  0  0  0  0  0  0  0  0  0  0  0
   -4.0474   -0.8277   -2.1636 H   0  0  0  0  0  0  0  0  0  0  0  0
  1  2  1  0
  1 11  1  0
  1 12  1  0
  1 13  1  0
  2  3  1  0
  2 14  1  0
  3  4  2  0
  3  5  1  0
  5  6  2  3
  5  7  1  0
  6 15  1  0
  6 16  1  0
  7  8  1  0
  7 17  1  0
  8  9  1  0
  8 10  2  0
  9 18  1  0
  9 19  1  0
  9 20  1  0
M  END

> <RosettaParamsInstructions>
M  ROOT 7
M  POLY_N_BB 7
M  POLY_CA_BB 5
M  POLY_C_BB 3
M  POLY_O_BB 4
M  POLY_IGNORE 1 10 9 14 11 12 13 18 19 20
M  POLY_UPPER 2
M  POLY_LOWER 8
M  POLY_CHG 0
M  POLY_PROPERTIES PROTEIN POLYMER ALPHA_AA ALIPHATIC
M  END

$$$$
DHA_new
     RDKit          3D

 20 19  0  0  0  0  0  0  0  0999 V2000
    2.6615   -1.0843    2.6036 C   0  0  0  0  0  0  0  0  0  0  0  0
    1.7029   -0.2587    1.8585 N   0  0  0  0  0  0  0  0  0  0  0  0
    0.5344   -0.8334    1.3111 C   0  0  0  0  0  0  0  0  0  0  0  0
    0.3500   -2.0826    1.4890 O   0  0  0  0  0  0  0  0  0  0  0  0
   -0.4634   -0.0725    0.5580 C   0  0  0  0  0  0  0  0  0  0  0  0
   -0.2866    1.2182    0.3661 C   0  0  0  0  0  0  0  0  0  0  0  0
   -1.5892   -0.7530    0.0595 N   0  0  0  0  0  0  0  0  0  0  0  0
   -2.6578   -0.2218   -0.6823 C   0  0  0  0  0  0  0  0  0  0  0  0
   -3.7577   -1.1589   -1.1072 C   0  0  0  0  0  0  0  0  0  0  0  0
   -2.7774    0.9543   -1.0201 O   0  0  0  0  0  0  0  0  0  0  0  0
    2.3282   -2.1214    2.5775 H   0  0  0  0  0  0  0  0  0  0  0  0
    2.7577   -0.6525    3.6201 H   0  0  0  0  0  0  0  0  0  0  0  0
    3.6353   -0.9685    2.0506 H   0  0  0  0  0  0  0  0  0  0  0  0
    1.9575    0.7311    1.7806 H   0  0  0  0  0  0  0  0  0  0  0  0
   -0.9448    1.8714   -0.1651 H   0  0  0  0  0  0  0  0  0  0  0  0
    0.6105    1.7151    0.7738 H   0  0  0  0  0  0  0  0  0  0  0  0
   -1.6126   -1.8056    0.2860 H   0  0  0  0  0  0  0  0  0  0  0  0
   -3.2830   -2.1435   -1.2909 H   0  0  0  0  0  0  0  0  0  0  0  0
   -4.2510   -0.7854   -2.0280 H   0  0  0  0  0  0  0  0  0  0  0  0
   -4.5210   -1.2003   -0.3001 H   0  0  0  0  0  0  0  0  0  0  0  0
  1  2  1  0
  1 11  1  0
  1 12  1  0
  1 13  1  0
  2  3  1  0
  2 14  1  0
  3  4  2  0
  3  5  1  0
  5  6  2  3
  5  7  1  0
  6 15  1  0
  6 16  1  0
  7  8  1  0
  7 17  1  0
  8  9  1  0
  8 10  2  0
  9 18  1  0
  9 19  1  0
  9 20  1  0
M  END

> <RosettaParamsInstructions>
M  ROOT 7
M  POLY_N_BB 7
M  POLY_CA_BB 5
M  POLY_C_BB 3
M  POLY_O_BB 4
M  POLY_IGNORE 1 10 9 14 11 12 13 18 19 20
M  POLY_UPPER 2
M  POLY_LOWER 8
M  POLY_CHG 0
M  POLY_PROPERTIES PROTEIN POLYMER ALPHA_AA ALIPHATIC
M  END

$$$$
DHA_new
     RDKit          3D

 20 19  0  0  0  0  0  0  0  0999 V2000
    2.6808   -1.0736    2.5494 C   0  0  0  0  0  0  0  0  0  0  0  0
    1.6880   -0.2317    1.8699 N   0  0  0  0  0  0  0  0  0  0  0  0
    0.5708   -0.8283    1.2916 C   0  0  0  0  0  0  0  0  0  0  0  0
    0.4348   -2.1085    1.3671 O   0  0  0  0  0  0  0  0  0  0  0  0
   -0.4609   -0.0557    0.5978 C   0  0  0  0  0  0  0  0  0  0  0  0
   -0.3303    1.2447    0.5169 C   0  0  0  0  0  0  0  0  0  0  0  0
   -1.5645   -0.7607    0.0405 N   0  0  0  0  0  0  0  0  0  0  0  0
   -2.6606   -0.2765   -0.6559 C   0  0  0  0  0  0  0  0  0  0  0  0
   -3.7545   -1.1451   -1.1879 C   0  0  0  0  0  0  0  0  0  0  0  0
   -2.8082    0.9441   -0.8892 O   0  0  0  0  0  0  0  0  0  0  0  0
    2.4564   -2.1264    2.3796 H   0  0  0  0  0  0  0  0  0  0  0  0
    3.6541   -0.8125    2.0762 H   0  0  0  0  0  0  0  0  0  0  0  0
    2.6819   -0.8522    3.6210 H   0  0  0  0  0  0  0  0  0  0  0  0
    1.8785    0.7851    1.8579 H   0  0  0  0  0  0  0  0  0  0  0  0
   -1.0362    1.8806    0.0292 H   0  0  0  0  0  0  0  0  0  0  0  0
    0.5207    1.7299    0.9536 H   0  0  0  0  0  0  0  0  0  0  0  0
   -1.5400   -1.8265    0.1834 H   0  0  0  0  0  0  0  0  0  0  0  0
   -3.4836   -2.1871   -0.9194 H   0  0  0  0  0  0  0  0  0  0  0  0
   -4.6906   -0.8530   -0.6678 H   0  0  0  0  0  0  0  0  0  0  0  0
   -3.8431   -1.0986   -2.2733 H   0  0  0  0  0  0  0  0  0  0  0  0
  1  2  1  0
  1 11  1  0
  1 12  1  0
  1 13  1  0
  2  3  1  0
  2 14  1  0
  3  4  2  0
  3  5  1  0
  5  6  2  3
  5  7  1  0
  6 15  1  0
  6 16  1  0
  7  8  1  0
  7 17  1  0
  8  9  1  0
  8 10  2  0
  9 18  1  0
  9 19  1  0
  9 20  1  0
M  END

> <RosettaParamsInstructions>
M  ROOT 7
M  POLY_N_BB 7
M  POLY_CA_BB 5
M  POLY_C_BB 3
M  POLY_O_BB 4
M  POLY_IGNORE 1 10 9 14 11 12 13 18 19 20
M  POLY_UPPER 2
M  POLY_LOWER 8
M  POLY_CHG 0
M  POLY_PROPERTIES PROTEIN POLYMER ALPHA_AA ALIPHATIC
M  END

$$$$
DHA_new
     RDKit          3D

 20 19  0  0  0  0  0  0  0  0999 V2000
    2.6604   -1.0322    2.5667 C   0  0  0  0  0  0  0  0  0  0  0  0
    1.6659   -0.2209    1.8466 N   0  0  0  0  0  0  0  0  0  0  0  0
    0.5677   -0.8677    1.3146 C   0  0  0  0  0  0  0  0  0  0  0  0
    0.4125   -2.1257    1.4384 O   0  0  0  0  0  0  0  0  0  0  0  0
   -0.4754   -0.0990    0.5733 C   0  0  0  0  0  0  0  0  0  0  0  0
   -0.3154    1.1785    0.4489 C   0  0  0  0  0  0  0  0  0  0  0  0
   -1.5755   -0.8037    0.0501 N   0  0  0  0  0  0  0  0  0  0  0  0
   -2.6159   -0.2268   -0.6569 C   0  0  0  0  0  0  0  0  0  0  0  0
   -3.7361   -1.1488   -1.1547 C   0  0  0  0  0  0  0  0  0  0  0  0
   -2.7521    0.9781   -0.9421 O   0  0  0  0  0  0  0  0  0  0  0  0
    2.6757   -2.0343    2.1224 H   0  0  0  0  0  0  0  0  0  0  0  0
    3.6537   -0.5795    2.4839 H   0  0  0  0  0  0  0  0  0  0  0  0
    2.3859   -1.1160    3.6382 H   0  0  0  0  0  0  0  0  0  0  0  0
    1.8523    0.7758    1.7856 H   0  0  0  0  0  0  0  0  0  0  0  0
   -1.0059    1.8243   -0.0651 H   0  0  0  0  0  0  0  0  0  0  0  0
    0.5427    1.7279    0.8572 H   0  0  0  0  0  0  0  0  0  0  0  0
   -1.6011   -1.8573    0.2149 H   0  0  0  0  0  0  0  0  0  0  0  0
   -4.6735   -0.5987   -0.9659 H   0  0  0  0  0  0  0  0  0  0  0  0
   -3.7100   -2.0932   -0.5857 H   0  0  0  0  0  0  0  0  0  0  0  0
   -3.5624   -1.3330   -2.2295 H   0  0  0  0  0  0  0  0  0  0  0  0
  1  2  1  0
  1 11  1  0
  1 12  1  0
  1 13  1  0
  2  3  1  0
  2 14  1  0
  3  4  2  0
  3  5  1  0
  5  6  2  3
  5  7  1  0
  6 15  1  0
  6 16  1  0
  7  8  1  0
  7 17  1  0
  8  9  1  0
  8 10  2  0
  9 18  1  0
  9 19  1  0
  9 20  1  0
M  END

> <RosettaParamsInstructions>
M  ROOT 7
M  POLY_N_BB 7
M  POLY_CA_BB 5
M  POLY_C_BB 3
M  POLY_O_BB 4
M  POLY_IGNORE 1 10 9 14 11 12 13 18 19 20
M  POLY_UPPER 2
M  POLY_LOWER 8
M  POLY_CHG 0
M  POLY_PROPERTIES PROTEIN POLYMER ALPHA_AA ALIPHATIC
M  END

$$$$
DHA_new
     RDKit          3D

 20 19  0  0  0  0  0  0  0  0999 V2000
    2.6596   -1.0580    2.5937 C   0  0  0  0  0  0  0  0  0  0  0  0
    1.7208   -0.2319    1.8421 N   0  0  0  0  0  0  0  0  0  0  0  0
    0.5682   -0.8122    1.3309 C   0  0  0  0  0  0  0  0  0  0  0  0
    0.3371   -2.0552    1.5192 O   0  0  0  0  0  0  0  0  0  0  0  0
   -0.4366   -0.0624    0.5612 C   0  0  0  0  0  0  0  0  0  0  0  0
   -0.2676    1.2180    0.3277 C   0  0  0  0  0  0  0  0  0  0  0  0
   -1.5762   -0.7527    0.0859 N   0  0  0  0  0  0  0  0  0  0  0  0
   -2.6385   -0.2557   -0.6515 C   0  0  0  0  0  0  0  0  0  0  0  0
   -3.7851   -1.1420   -1.0803 C   0  0  0  0  0  0  0  0  0  0  0  0
   -2.7559    0.9322   -1.0255 O   0  0  0  0  0  0  0  0  0  0  0  0
    2.6457   -2.0980    2.1814 H   0  0  0  0  0  0  0  0  0  0  0  0
    2.3747   -1.0773    3.6561 H   0  0  0  0  0  0  0  0  0  0  0  0
    3.6889   -0.6627    2.4332 H   0  0  0  0  0  0  0  0  0  0  0  0
    1.9543    0.7573    1.7208 H   0  0  0  0  0  0  0  0  0  0  0  0
   -0.9438    1.8508   -0.2234 H   0  0  0  0  0  0  0  0  0  0  0  0
    0.6403    1.6999    0.7239 H   0  0  0  0  0  0  0  0  0  0  0  0
   -1.6131   -1.7880    0.3319 H   0  0  0  0  0  0  0  0  0  0  0  0
   -3.4431   -2.2003   -1.1648 H   0  0  0  0  0  0  0  0  0  0  0  0
   -4.5952   -1.0746   -0.3371 H   0  0  0  0  0  0  0  0  0  0  0  0
   -4.1410   -0.8396   -2.0846 H   0  0  0  0  0  0  0  0  0  0  0  0
  1  2  1  0
  1 11  1  0
  1 12  1  0
  1 13  1  0
  2  3  1  0
  2 14  1  0
  3  4  2  0
  3  5  1  0
  5  6  2  3
  5  7  1  0
  6 15  1  0
  6 16  1  0
  7  8  1  0
  7 17  1  0
  8  9  1  0
  8 10  2  0
  9 18  1  0
  9 19  1  0
  9 20  1  0
M  END

> <RosettaParamsInstructions>
M  ROOT 7
M  POLY_N_BB 7
M  POLY_CA_BB 5
M  POLY_C_BB 3
M  POLY_O_BB 4
M  POLY_IGNORE 1 10 9 14 11 12 13 18 19 20
M  POLY_UPPER 2
M  POLY_LOWER 8
M  POLY_CHG 0
M  POLY_PROPERTIES PROTEIN POLYMER ALPHA_AA ALIPHATIC
M  END

$$$$
DHA_new
     RDKit          3D

 20 19  0  0  0  0  0  0  0  0999 V2000
    2.6804   -1.0492    2.5975 C   0  0  0  0  0  0  0  0  0  0  0  0
    1.7395   -0.2485    1.8444 N   0  0  0  0  0  0  0  0  0  0  0  0
    0.5608   -0.7914    1.3235 C   0  0  0  0  0  0  0  0  0  0  0  0
    0.3536   -2.0363    1.5461 O   0  0  0  0  0  0  0  0  0  0  0  0
   -0.4523   -0.0443    0.5440 C   0  0  0  0  0  0  0  0  0  0  0  0
   -0.2488    1.2257    0.3125 C   0  0  0  0  0  0  0  0  0  0  0  0
   -1.5857   -0.7405    0.0907 N   0  0  0  0  0  0  0  0  0  0  0  0
   -2.6666   -0.2699   -0.6517 C   0  0  0  0  0  0  0  0  0  0  0  0
   -3.8134   -1.1596   -1.0597 C   0  0  0  0  0  0  0  0  0  0  0  0
   -2.7695    0.9088   -1.0322 O   0  0  0  0  0  0  0  0  0  0  0  0
    3.4923   -1.4224    1.9225 H   0  0  0  0  0  0  0  0  0  0  0  0
    2.1912   -1.9747    2.9942 H   0  0  0  0  0  0  0  0  0  0  0  0
    3.0678   -0.4791    3.4588 H   0  0  0  0  0  0  0  0  0  0  0  0
    1.9781    0.7441    1.7086 H   0  0  0  0  0  0  0  0  0  0  0  0
    0.6475    1.7386    0.6813 H   0  0  0  0  0  0  0  0  0  0  0  0
   -0.9210    1.8410   -0.2374 H   0  0  0  0  0  0  0  0  0  0  0  0
   -1.6433   -1.7901    0.3449 H   0  0  0  0  0  0  0  0  0  0  0  0
   -4.7404   -0.9034   -0.5564 H   0  0  0  0  0  0  0  0  0  0  0  0
   -3.4943   -2.2117   -0.9350 H   0  0  0  0  0  0  0  0  0  0  0  0
   -3.9825   -0.9892   -2.1557 H   0  0  0  0  0  0  0  0  0  0  0  0
  1  2  1  0
  1 11  1  0
  1 12  1  0
  1 13  1  0
  2  3  1  0
  2 14  1  0
  3  4  2  0
  3  5  1  0
  5  6  2  3
  5  7  1  0
  6 15  1  0
  6 16  1  0
  7  8  1  0
  7 17  1  0
  8  9  1  0
  8 10  2  0
  9 18  1  0
  9 19  1  0
  9 20  1  0
M  END

> <RosettaParamsInstructions>
M  ROOT 7
M  POLY_N_BB 7
M  POLY_CA_BB 5
M  POLY_C_BB 3
M  POLY_O_BB 4
M  POLY_IGNORE 1 10 9 14 11 12 13 18 19 20
M  POLY_UPPER 2
M  POLY_LOWER 8
M  POLY_CHG 0
M  POLY_PROPERTIES PROTEIN POLYMER ALPHA_AA ALIPHATIC
M  END

$$$$
DHA_new
     RDKit          3D

 20 19  0  0  0  0  0  0  0  0999 V2000
    2.6717   -1.0674    2.5678 C   0  0  0  0  0  0  0  0  0  0  0  0
    1.7060   -0.2119    1.8621 N   0  0  0  0  0  0  0  0  0  0  0  0
    0.5794   -0.8283    1.3104 C   0  0  0  0  0  0  0  0  0  0  0  0
    0.4368   -2.0717    1.4366 O   0  0  0  0  0  0  0  0  0  0  0  0
   -0.4644   -0.0790    0.5772 C   0  0  0  0  0  0  0  0  0  0  0  0
   -0.3541    1.2122    0.4241 C   0  0  0  0  0  0  0  0  0  0  0  0
   -1.5589   -0.7933    0.0606 N   0  0  0  0  0  0  0  0  0  0  0  0
   -2.6268   -0.2297   -0.6555 C   0  0  0  0  0  0  0  0  0  0  0  0
   -3.7414   -1.1358   -1.1514 C   0  0  0  0  0  0  0  0  0  0  0  0
   -2.7932    0.9717   -0.9544 O   0  0  0  0  0  0  0  0  0  0  0  0
    2.9791   -1.9233    1.9699 H   0  0  0  0  0  0  0  0  0  0  0  0
    3.5533   -0.4857    2.8534 H   0  0  0  0  0  0  0  0  0  0  0  0
    2.1158   -1.4622    3.4543 H   0  0  0  0  0  0  0  0  0  0  0  0
    1.8866    0.8197    1.7936 H   0  0  0  0  0  0  0  0  0  0  0  0
    0.5163    1.7547    0.8391 H   0  0  0  0  0  0  0  0  0  0  0  0
   -1.0375    1.8617   -0.0828 H   0  0  0  0  0  0  0  0  0  0  0  0
   -1.5683   -1.8605    0.2346 H   0  0  0  0  0  0  0  0  0  0  0  0
   -4.5166   -0.5963   -1.6868 H   0  0  0  0  0  0  0  0  0  0  0  0
   -4.1555   -1.6729   -0.2850 H   0  0  0  0  0  0  0  0  0  0  0  0
   -3.2347   -1.8543   -1.8270 H   0  0  0  0  0  0  0  0  0  0  0  0
  1  2  1  0
  1 11  1  0
  1 12  1  0
  1 13  1  0
  2  3  1  0
  2 14  1  0
  3  4  2  0
  3  5  1  0
  5  6  2  3
  5  7  1  0
  6 15  1  0
  6 16  1  0
  7  8  1  0
  7 17  1  0
  8  9  1  0
  8 10  2  0
  9 18  1  0
  9 19  1  0
  9 20  1  0
M  END

> <RosettaParamsInstructions>
M  ROOT 7
M  POLY_N_BB 7
M  POLY_CA_BB 5
M  POLY_C_BB 3
M  POLY_O_BB 4
M  POLY_IGNORE 1 10 9 14 11 12 13 18 19 20
M  POLY_UPPER 2
M  POLY_LOWER 8
M  POLY_CHG 0
M  POLY_PROPERTIES PROTEIN POLYMER ALPHA_AA ALIPHATIC
M  END

$$$$
DHA_new
     RDKit          3D

 20 19  0  0  0  0  0  0  0  0999 V2000
    2.6944   -1.0540    2.5353 C   0  0  0  0  0  0  0  0  0  0  0  0
    1.7202   -0.1896    1.8718 N   0  0  0  0  0  0  0  0  0  0  0  0
    0.6026   -0.8026    1.2906 C   0  0  0  0  0  0  0  0  0  0  0  0
    0.4675   -2.0612    1.3531 O   0  0  0  0  0  0  0  0  0  0  0  0
   -0.4722   -0.0782    0.5843 C   0  0  0  0  0  0  0  0  0  0  0  0
   -0.3741    1.2174    0.4961 C   0  0  0  0  0  0  0  0  0  0  0  0
   -1.5564   -0.7877    0.0334 N   0  0  0  0  0  0  0  0  0  0  0  0
   -2.6387   -0.2497   -0.6563 C   0  0  0  0  0  0  0  0  0  0  0  0
   -3.7336   -1.1521   -1.1919 C   0  0  0  0  0  0  0  0  0  0  0  0
   -2.8128    0.9537   -0.8925 O   0  0  0  0  0  0  0  0  0  0  0  0
    2.0817   -1.7969    3.1149 H   0  0  0  0  0  0  0  0  0  0  0  0
    3.2980   -0.5015    3.2835 H   0  0  0  0  0  0  0  0  0  0  0  0
    3.3414   -1.5434    1.7988 H   0  0  0  0  0  0  0  0  0  0  0  0
    1.9476    0.8181    1.8911 H   0  0  0  0  0  0  0  0  0  0  0  0
    0.4985    1.7027    0.9491 H   0  0  0  0  0  0  0  0  0  0  0  0
   -1.1038    1.8513    0.0006 H   0  0  0  0  0  0  0  0  0  0  0  0
   -1.5551   -1.8650    0.1549 H   0  0  0  0  0  0  0  0  0  0  0  0
   -4.7259   -0.7014   -0.9911 H   0  0  0  0  0  0  0  0  0  0  0  0
   -3.6063   -1.3189   -2.2785 H   0  0  0  0  0  0  0  0  0  0  0  0
   -3.6796   -2.0931   -0.6065 H   0  0  0  0  0  0  0  0  0  0  0  0
  1  2  1  0
  1 11  1  0
  1 12  1  0
  1 13  1  0
  2  3  1  0
  2 14  1  0
  3  4  2  0
  3  5  1  0
  5  6  2  3
  5  7  1  0
  6 15  1  0
  6 16  1  0
  7  8  1  0
  7 17  1  0
  8  9  1  0
  8 10  2  0
  9 18  1  0
  9 19  1  0
  9 20  1  0
M  END

> <RosettaParamsInstructions>
M  ROOT 7
M  POLY_N_BB 7
M  POLY_CA_BB 5
M  POLY_C_BB 3
M  POLY_O_BB 4
M  POLY_IGNORE 1 10 9 14 11 12 13 18 19 20
M  POLY_UPPER 2
M  POLY_LOWER 8
M  POLY_CHG 0
M  POLY_PROPERTIES PROTEIN POLYMER ALPHA_AA ALIPHATIC
M  END

$$$$
DHA_new
     RDKit          3D

 20 19  0  0  0  0  0  0  0  0999 V2000
    2.6649   -1.0526    2.5629 C   0  0  0  0  0  0  0  0  0  0  0  0
    1.6820   -0.2062    1.8472 N   0  0  0  0  0  0  0  0  0  0  0  0
    0.5671   -0.8500    1.3050 C   0  0  0  0  0  0  0  0  0  0  0  0
    0.3802   -2.1029    1.4065 O   0  0  0  0  0  0  0  0  0  0  0  0
   -0.4584   -0.0731    0.5762 C   0  0  0  0  0  0  0  0  0  0  0  0
   -0.2895    1.2228    0.4570 C   0  0  0  0  0  0  0  0  0  0  0  0
   -1.5622   -0.7735    0.0500 N   0  0  0  0  0  0  0  0  0  0  0  0
   -2.6411   -0.2534   -0.6668 C   0  0  0  0  0  0  0  0  0  0  0  0
   -3.7273   -1.1846   -1.1439 C   0  0  0  0  0  0  0  0  0  0  0  0
   -2.7866    0.9705   -0.9574 O   0  0  0  0  0  0  0  0  0  0  0  0
    2.6334   -2.0625    2.1438 H   0  0  0  0  0  0  0  0  0  0  0  0
    3.6769   -0.6061    2.4994 H   0  0  0  0  0  0  0  0  0  0  0  0
    2.2871   -1.1097    3.6098 H   0  0  0  0  0  0  0  0  0  0  0  0
    1.9051    0.7893    1.8101 H   0  0  0  0  0  0  0  0  0  0  0  0
    0.5602    1.7720    0.8604 H   0  0  0  0  0  0  0  0  0  0  0  0
   -0.9995    1.8406   -0.0610 H   0  0  0  0  0  0  0  0  0  0  0  0
   -1.5842   -1.8307    0.2147 H   0  0  0  0  0  0  0  0  0  0  0  0
   -4.5608   -1.1874   -0.4183 H   0  0  0  0  0  0  0  0  0  0  0  0
   -3.2463   -2.1750   -1.2646 H   0  0  0  0  0  0  0  0  0  0  0  0
   -4.1075   -0.7799   -2.0899 H   0  0  0  0  0  0  0  0  0  0  0  0
  1  2  1  0
  1 11  1  0
  1 12  1  0
  1 13  1  0
  2  3  1  0
  2 14  1  0
  3  4  2  0
  3  5  1  0
  5  6  2  3
  5  7  1  0
  6 15  1  0
  6 16  1  0
  7  8  1  0
  7 17  1  0
  8  9  1  0
  8 10  2  0
  9 18  1  0
  9 19  1  0
  9 20  1  0
M  END

> <RosettaParamsInstructions>
M  ROOT 7
M  POLY_N_BB 7
M  POLY_CA_BB 5
M  POLY_C_BB 3
M  POLY_O_BB 4
M  POLY_IGNORE 1 10 9 14 11 12 13 18 19 20
M  POLY_UPPER 2
M  POLY_LOWER 8
M  POLY_CHG 0
M  POLY_PROPERTIES PROTEIN POLYMER ALPHA_AA ALIPHATIC
M  END

$$$$
DHA_new
     RDKit          3D

 20 19  0  0  0  0  0  0  0  0999 V2000
    2.6643   -1.0747    2.5892 C   0  0  0  0  0  0  0  0  0  0  0  0
    1.6662   -0.2191    1.9177 N   0  0  0  0  0  0  0  0  0  0  0  0
    0.5637   -0.8184    1.3035 C   0  0  0  0  0  0  0  0  0  0  0  0
    0.4499   -2.0947    1.3404 O   0  0  0  0  0  0  0  0  0  0  0  0
   -0.4668   -0.0643    0.6209 C   0  0  0  0  0  0  0  0  0  0  0  0
   -0.3955    1.2348    0.5565 C   0  0  0  0  0  0  0  0  0  0  0  0
   -1.5433   -0.7536    0.0298 N   0  0  0  0  0  0  0  0  0  0  0  0
   -2.6151   -0.2309   -0.6587 C   0  0  0  0  0  0  0  0  0  0  0  0
   -3.6682   -1.1737   -1.2148 C   0  0  0  0  0  0  0  0  0  0  0  0
   -2.8084    0.9617   -0.8734 O   0  0  0  0  0  0  0  0  0  0  0  0
    2.3382   -1.2600    3.6150 H   0  0  0  0  0  0  0  0  0  0  0  0
    3.6255   -0.5688    2.4768 H   0  0  0  0  0  0  0  0  0  0  0  0
    2.7089   -2.0236    1.9871 H   0  0  0  0  0  0  0  0  0  0  0  0
    1.8113    0.8111    1.9200 H   0  0  0  0  0  0  0  0  0  0  0  0
    0.4515    1.7409    1.0246 H   0  0  0  0  0  0  0  0  0  0  0  0
   -1.1128    1.8964    0.0700 H   0  0  0  0  0  0  0  0  0  0  0  0
   -1.5116   -1.8174    0.1367 H   0  0  0  0  0  0  0  0  0  0  0  0
   -3.5858   -1.2219   -2.3073 H   0  0  0  0  0  0  0  0  0  0  0  0
   -4.6760   -0.7818   -0.9791 H   0  0  0  0  0  0  0  0  0  0  0  0
   -3.5025   -2.1943   -0.8142 H   0  0  0  0  0  0  0  0  0  0  0  0
  1  2  1  0
  1 11  1  0
  1 12  1  0
  1 13  1  0
  2  3  1  0
  2 14  1  0
  3  4  2  0
  3  5  1  0
  5  6  2  3
  5  7  1  0
  6 15  1  0
  6 16  1  0
  7  8  1  0
  7 17  1  0
  8  9  1  0
  8 10  2  0
  9 18  1  0
  9 19  1  0
  9 20  1  0
M  END

> <RosettaParamsInstructions>
M  ROOT 7
M  POLY_N_BB 7
M  POLY_CA_BB 5
M  POLY_C_BB 3
M  POLY_O_BB 4
M  POLY_IGNORE 1 10 9 14 11 12 13 18 19 20
M  POLY_UPPER 2
M  POLY_LOWER 8
M  POLY_CHG 0
M  POLY_PROPERTIES PROTEIN POLYMER ALPHA_AA ALIPHATIC
M  END

$$$$
DHA_new
     RDKit          3D

 20 19  0  0  0  0  0  0  0  0999 V2000
    2.6603   -1.0901    2.5688 C   0  0  0  0  0  0  0  0  0  0  0  0
    1.6894   -0.2087    1.8708 N   0  0  0  0  0  0  0  0  0  0  0  0
    0.5789   -0.8314    1.3098 C   0  0  0  0  0  0  0  0  0  0  0  0
    0.4229   -2.0723    1.3989 O   0  0  0  0  0  0  0  0  0  0  0  0
   -0.4536   -0.0597    0.5917 C   0  0  0  0  0  0  0  0  0  0  0  0
   -0.3435    1.2296    0.4687 C   0  0  0  0  0  0  0  0  0  0  0  0
   -1.5719   -0.7367    0.0341 N   0  0  0  0  0  0  0  0  0  0  0  0
   -2.6525   -0.2189   -0.6753 C   0  0  0  0  0  0  0  0  0  0  0  0
   -3.7020   -1.1915   -1.1495 C   0  0  0  0  0  0  0  0  0  0  0  0
   -2.7790    1.0012   -0.9272 O   0  0  0  0  0  0  0  0  0  0  0  0
    3.6277   -0.5903    2.5242 H   0  0  0  0  0  0  0  0  0  0  0  0
    2.2878   -1.2571    3.5895 H   0  0  0  0  0  0  0  0  0  0  0  0
    2.7195   -2.0221    1.9720 H   0  0  0  0  0  0  0  0  0  0  0  0
    1.8784    0.8100    1.8336 H   0  0  0  0  0  0  0  0  0  0  0  0
   -1.0281    1.9025   -0.0310 H   0  0  0  0  0  0  0  0  0  0  0  0
    0.5208    1.7411    0.9013 H   0  0  0  0  0  0  0  0  0  0  0  0
   -1.5524   -1.7931    0.1992 H   0  0  0  0  0  0  0  0  0  0  0  0
   -4.7106   -0.7125   -1.0123 H   0  0  0  0  0  0  0  0  0  0  0  0
   -3.5104   -1.4588   -2.2089 H   0  0  0  0  0  0  0  0  0  0  0  0
   -3.6883   -2.0934   -0.5175 H   0  0  0  0  0  0  0  0  0  0  0  0
  1  2  1  0
  1 11  1  0
  1 12  1  0
  1 13  1  0
  2  3  1  0
  2 14  1  0
  3  4  2  0
  3  5  1  0
  5  6  2  3
  5  7  1  0
  6 15  1  0
  6 16  1  0
  7  8  1  0
  7 17  1  0
  8  9  1  0
  8 10  2  0
  9 18  1  0
  9 19  1  0
  9 20  1  0
M  END

> <RosettaParamsInstructions>
M  ROOT 7
M  POLY_N_BB 7
M  POLY_CA_BB 5
M  POLY_C_BB 3
M  POLY_O_BB 4
M  POLY_IGNORE 1 10 9 14 11 12 13 18 19 20
M  POLY_UPPER 2
M  POLY_LOWER 8
M  POLY_CHG 0
M  POLY_PROPERTIES PROTEIN POLYMER ALPHA_AA ALIPHATIC
M  END

$$$$
DHA_new
     RDKit          3D

 20 19  0  0  0  0  0  0  0  0999 V2000
    2.7091   -1.0882    2.4920 C   0  0  0  0  0  0  0  0  0  0  0  0
    1.6648   -0.2332    1.9048 N   0  0  0  0  0  0  0  0  0  0  0  0
    0.5776   -0.8004    1.2508 C   0  0  0  0  0  0  0  0  0  0  0  0
    0.5072   -2.0739    1.1721 O   0  0  0  0  0  0  0  0  0  0  0  0
   -0.4988   -0.0404    0.6420 C   0  0  0  0  0  0  0  0  0  0  0  0
   -0.4666    1.2678    0.6993 C   0  0  0  0  0  0  0  0  0  0  0  0
   -1.5550   -0.7521    0.0019 N   0  0  0  0  0  0  0  0  0  0  0  0
   -2.6741   -0.2427   -0.6392 C   0  0  0  0  0  0  0  0  0  0  0  0
   -3.6657   -1.1827   -1.2481 C   0  0  0  0  0  0  0  0  0  0  0  0
   -2.8971    0.9730   -0.7343 O   0  0  0  0  0  0  0  0  0  0  0  0
    2.9326   -0.7673    3.5314 H   0  0  0  0  0  0  0  0  0  0  0  0
    3.6391   -0.9549    1.9087 H   0  0  0  0  0  0  0  0  0  0  0  0
    2.4017   -2.1501    2.4637 H   0  0  0  0  0  0  0  0  0  0  0  0
    1.7908    0.7789    2.0084 H   0  0  0  0  0  0  0  0  0  0  0  0
    0.3682    1.7777    1.2037 H   0  0  0  0  0  0  0  0  0  0  0  0
   -1.2176    1.9400    0.2787 H   0  0  0  0  0  0  0  0  0  0  0  0
   -1.4835   -1.8263    0.0123 H   0  0  0  0  0  0  0  0  0  0  0  0
   -3.8194   -2.0797   -0.6129 H   0  0  0  0  0  0  0  0  0  0  0  0
   -4.6553   -0.6907   -1.3680 H   0  0  0  0  0  0  0  0  0  0  0  0
   -3.2646   -1.5071   -2.2264 H   0  0  0  0  0  0  0  0  0  0  0  0
  1  2  1  0
  1 11  1  0
  1 12  1  0
  1 13  1  0
  2  3  1  0
  2 14  1  0
  3  4  2  0
  3  5  1  0
  5  6  2  3
  5  7  1  0
  6 15  1  0
  6 16  1  0
  7  8  1  0
  7 17  1  0
  8  9  1  0
  8 10  2  0
  9 18  1  0
  9 19  1  0
  9 20  1  0
M  END

> <RosettaParamsInstructions>
M  ROOT 7
M  POLY_N_BB 7
M  POLY_CA_BB 5
M  POLY_C_BB 3
M  POLY_O_BB 4
M  POLY_IGNORE 1 10 9 14 11 12 13 18 19 20
M  POLY_UPPER 2
M  POLY_LOWER 8
M  POLY_CHG 0
M  POLY_PROPERTIES PROTEIN POLYMER ALPHA_AA ALIPHATIC
M  END

$$$$
DHA_new
     RDKit          3D

 20 19  0  0  0  0  0  0  0  0999 V2000
    2.6938   -1.0926    2.5025 C   0  0  0  0  0  0  0  0  0  0  0  0
    1.7168   -0.2269    1.8197 N   0  0  0  0  0  0  0  0  0  0  0  0
    0.5892   -0.8305    1.2934 C   0  0  0  0  0  0  0  0  0  0  0  0
    0.3920   -2.0670    1.3861 O   0  0  0  0  0  0  0  0  0  0  0  0
   -0.4562   -0.0482    0.5864 C   0  0  0  0  0  0  0  0  0  0  0  0
   -0.3253    1.2402    0.4485 C   0  0  0  0  0  0  0  0  0  0  0  0
   -1.5746   -0.7370    0.0791 N   0  0  0  0  0  0  0  0  0  0  0  0
   -2.6687   -0.2195   -0.6117 C   0  0  0  0  0  0  0  0  0  0  0  0
   -3.7749   -1.1737   -1.0688 C   0  0  0  0  0  0  0  0  0  0  0  0
   -2.8007    0.9822   -0.8811 O   0  0  0  0  0  0  0  0  0  0  0  0
    2.7337   -2.0317    1.9267 H   0  0  0  0  0  0  0  0  0  0  0  0
    2.4237   -1.2365    3.5632 H   0  0  0  0  0  0  0  0  0  0  0  0
    3.7041   -0.6398    2.4642 H   0  0  0  0  0  0  0  0  0  0  0  0
    1.9128    0.7948    1.7614 H   0  0  0  0  0  0  0  0  0  0  0  0
    0.5567    1.7872    0.8479 H   0  0  0  0  0  0  0  0  0  0  0  0
   -1.0561    1.8273   -0.0524 H   0  0  0  0  0  0  0  0  0  0  0  0
   -1.5888   -1.7959    0.2443 H   0  0  0  0  0  0  0  0  0  0  0  0
   -4.4199   -1.3951   -0.2056 H   0  0  0  0  0  0  0  0  0  0  0  0
   -4.3493   -0.6967   -1.8759 H   0  0  0  0  0  0  0  0  0  0  0  0
   -3.3145   -2.0928   -1.4871 H   0  0  0  0  0  0  0  0  0  0  0  0
  1  2  1  0
  1 11  1  0
  1 12  1  0
  1 13  1  0
  2  3  1  0
  2 14  1  0
  3  4  2  0
  3  5  1  0
  5  6  2  3
  5  7  1  0
  6 15  1  0
  6 16  1  0
  7  8  1  0
  7 17  1  0
  8  9  1  0
  8 10  2  0
  9 18  1  0
  9 19  1  0
  9 20  1  0
M  END

> <RosettaParamsInstructions>
M  ROOT 7
M  POLY_N_BB 7
M  POLY_CA_BB 5
M  POLY_C_BB 3
M  POLY_O_BB 4
M  POLY_IGNORE 1 10 9 14 11 12 13 18 19 20
M  POLY_UPPER 2
M  POLY_LOWER 8
M  POLY_CHG 0
M  POLY_PROPERTIES PROTEIN POLYMER ALPHA_AA ALIPHATIC
M  END

$$$$
DHA_new
     RDKit          3D

 20 19  0  0  0  0  0  0  0  0999 V2000
    2.6575   -1.0936    2.5834 C   0  0  0  0  0  0  0  0  0  0  0  0
    1.7169   -0.1973    1.8797 N   0  0  0  0  0  0  0  0  0  0  0  0
    0.5781   -0.7936    1.3151 C   0  0  0  0  0  0  0  0  0  0  0  0
    0.3859   -2.0497    1.4174 O   0  0  0  0  0  0  0  0  0  0  0  0
   -0.4633   -0.0401    0.5769 C   0  0  0  0  0  0  0  0  0  0  0  0
   -0.3179    1.2498    0.4415 C   0  0  0  0  0  0  0  0  0  0  0  0
   -1.5775   -0.7029    0.0382 N   0  0  0  0  0  0  0  0  0  0  0  0
   -2.6575   -0.2095   -0.6783 C   0  0  0  0  0  0  0  0  0  0  0  0
   -3.7202   -1.1886   -1.1327 C   0  0  0  0  0  0  0  0  0  0  0  0
   -2.8228    0.9846   -0.9791 O   0  0  0  0  0  0  0  0  0  0  0  0
    3.2233   -1.6186    1.7786 H   0  0  0  0  0  0  0  0  0  0  0  0
    3.3332   -0.5303    3.2279 H   0  0  0  0  0  0  0  0  0  0  0  0
    2.0193   -1.8060    3.1457 H   0  0  0  0  0  0  0  0  0  0  0  0
    1.9141    0.8162    1.8218 H   0  0  0  0  0  0  0  0  0  0  0  0
    0.5504    1.7791    0.8591 H   0  0  0  0  0  0  0  0  0  0  0  0
   -1.0410    1.8372   -0.0822 H   0  0  0  0  0  0  0  0  0  0  0  0
   -1.5853   -1.7646    0.2151 H   0  0  0  0  0  0  0  0  0  0  0  0
   -3.2449   -1.7976   -1.9323 H   0  0  0  0  0  0  0  0  0  0  0  0
   -4.6145   -0.6640   -1.4789 H   0  0  0  0  0  0  0  0  0  0  0  0
   -3.9402   -1.8628   -0.2761 H   0  0  0  0  0  0  0  0  0  0  0  0
  1  2  1  0
  1 11  1  0
  1 12  1  0
  1 13  1  0
  2  3  1  0
  2 14  1  0
  3  4  2  0
  3  5  1  0
  5  6  2  3
  5  7  1  0
  6 15  1  0
  6 16  1  0
  7  8  1  0
  7 17  1  0
  8  9  1  0
  8 10  2  0
  9 18  1  0
  9 19  1  0
  9 20  1  0
M  END

> <RosettaParamsInstructions>
M  ROOT 7
M  POLY_N_BB 7
M  POLY_CA_BB 5
M  POLY_C_BB 3
M  POLY_O_BB 4
M  POLY_IGNORE 1 10 9 14 11 12 13 18 19 20
M  POLY_UPPER 2
M  POLY_LOWER 8
M  POLY_CHG 0
M  POLY_PROPERTIES PROTEIN POLYMER ALPHA_AA ALIPHATIC
M  END

$$$$
DHA_new
     RDKit          3D

 20 19  0  0  0  0  0  0  0  0999 V2000
    2.6793   -1.0919    2.5611 C   0  0  0  0  0  0  0  0  0  0  0  0
    1.6610   -0.2377    1.9047 N   0  0  0  0  0  0  0  0  0  0  0  0
    0.5537   -0.8162    1.2762 C   0  0  0  0  0  0  0  0  0  0  0  0
    0.4423   -2.0533    1.2796 O   0  0  0  0  0  0  0  0  0  0  0  0
   -0.4876   -0.0181    0.6093 C   0  0  0  0  0  0  0  0  0  0  0  0
   -0.4088    1.2890    0.5825 C   0  0  0  0  0  0  0  0  0  0  0  0
   -1.5447   -0.7512    0.0195 N   0  0  0  0  0  0  0  0  0  0  0  0
   -2.6531   -0.2585   -0.6702 C   0  0  0  0  0  0  0  0  0  0  0  0
   -3.6806   -1.2035   -1.2303 C   0  0  0  0  0  0  0  0  0  0  0  0
   -2.8446    0.9549   -0.8531 O   0  0  0  0  0  0  0  0  0  0  0  0
    2.7679   -0.7605    3.5954 H   0  0  0  0  0  0  0  0  0  0  0  0
    3.6595   -0.9853    2.0605 H   0  0  0  0  0  0  0  0  0  0  0  0
    2.3126   -2.1349    2.5470 H   0  0  0  0  0  0  0  0  0  0  0  0
    1.8107    0.7887    1.9361 H   0  0  0  0  0  0  0  0  0  0  0  0
    0.4417    1.7926    1.0619 H   0  0  0  0  0  0  0  0  0  0  0  0
   -1.1611    1.8780    0.1000 H   0  0  0  0  0  0  0  0  0  0  0  0
   -1.5090   -1.8181    0.1012 H   0  0  0  0  0  0  0  0  0  0  0  0
   -3.1617   -2.1642   -1.4056 H   0  0  0  0  0  0  0  0  0  0  0  0
   -3.9670   -0.7925   -2.2187 H   0  0  0  0  0  0  0  0  0  0  0  0
   -4.5168   -1.2695   -0.5162 H   0  0  0  0  0  0  0  0  0  0  0  0
  1  2  1  0
  1 11  1  0
  1 12  1  0
  1 13  1  0
  2  3  1  0
  2 14  1  0
  3  4  2  0
  3  5  1  0
  5  6  2  3
  5  7  1  0
  6 15  1  0
  6 16  1  0
  7  8  1  0
  7 17  1  0
  8  9  1  0
  8 10  2  0
  9 18  1  0
  9 19  1  0
  9 20  1  0
M  END

> <RosettaParamsInstructions>
M  ROOT 7
M  POLY_N_BB 7
M  POLY_CA_BB 5
M  POLY_C_BB 3
M  POLY_O_BB 4
M  POLY_IGNORE 1 10 9 14 11 12 13 18 19 20
M  POLY_UPPER 2
M  POLY_LOWER 8
M  POLY_CHG 0
M  POLY_PROPERTIES PROTEIN POLYMER ALPHA_AA ALIPHATIC
M  END

$$$$
DHA_new
     RDKit          3D

 20 19  0  0  0  0  0  0  0  0999 V2000
    2.2598   -1.5720    2.4517 C   0  0  0  0  0  0  0  0  0  0  0  0
    1.0320   -1.2644    1.6698 N   0  0  0  0  0  0  0  0  0  0  0  0
    0.8345    0.0810    1.3262 C   0  0  0  0  0  0  0  0  0  0  0  0
    1.6980    0.9452    1.6944 O   0  0  0  0  0  0  0  0  0  0  0  0
   -0.3382    0.5015    0.5582 C   0  0  0  0  0  0  0  0  0  0  0  0
   -0.4452    1.7922    0.2775 C   0  0  0  0  0  0  0  0  0  0  0  0
   -1.2853   -0.4580    0.1562 N   0  0  0  0  0  0  0  0  0  0  0  0
   -2.4612   -0.2540   -0.5773 C   0  0  0  0  0  0  0  0  0  0  0  0
   -3.3576   -1.4196   -0.9144 C   0  0  0  0  0  0  0  0  0  0  0  0
   -2.8472    0.8507   -0.9925 O   0  0  0  0  0  0  0  0  0  0  0  0
    2.0880   -2.4935    3.0100 H   0  0  0  0  0  0  0  0  0  0  0  0
    3.0757   -1.6393    1.6970 H   0  0  0  0  0  0  0  0  0  0  0  0
    2.4814   -0.7520    3.1539 H   0  0  0  0  0  0  0  0  0  0  0  0
    0.4106   -2.0439    1.4313 H   0  0  0  0  0  0  0  0  0  0  0  0
    0.3088    2.5101    0.6053 H   0  0  0  0  0  0  0  0  0  0  0  0
   -1.2562    2.1975   -0.2729 H   0  0  0  0  0  0  0  0  0  0  0  0
   -1.0969   -1.4776    0.4396 H   0  0  0  0  0  0  0  0  0  0  0  0
   -4.3985   -1.0912   -1.0214 H   0  0  0  0  0  0  0  0  0  0  0  0
   -3.2714   -2.1739   -0.0804 H   0  0  0  0  0  0  0  0  0  0  0  0
   -3.0377   -1.8914   -1.8713 H   0  0  0  0  0  0  0  0  0  0  0  0
  1  2  1  0
  1 11  1  0
  1 12  1  0
  1 13  1  0
  2  3  1  0
  2 14  1  0
  3  4  2  0
  3  5  1  0
  5  6  2  3
  5  7  1  0
  6 15  1  0
  6 16  1  0
  7  8  1  0
  7 17  1  0
  8  9  1  0
  8 10  2  0
  9 18  1  0
  9 19  1  0
  9 20  1  0
M  END

> <RosettaParamsInstructions>
M  ROOT 7
M  POLY_N_BB 7
M  POLY_CA_BB 5
M  POLY_C_BB 3
M  POLY_O_BB 4
M  POLY_IGNORE 1 10 9 14 11 12 13 18 19 20
M  POLY_UPPER 2
M  POLY_LOWER 8
M  POLY_CHG 0
M  POLY_PROPERTIES PROTEIN POLYMER ALPHA_AA ALIPHATIC
M  END

$$$$
DHA_new
     RDKit          3D

 20 19  0  0  0  0  0  0  0  0999 V2000
    2.6247   -1.0904    2.5714 C   0  0  0  0  0  0  0  0  0  0  0  0
    1.6980   -0.2166    1.8126 N   0  0  0  0  0  0  0  0  0  0  0  0
    0.5431   -0.8216    1.3112 C   0  0  0  0  0  0  0  0  0  0  0  0
    0.3380   -2.0406    1.5136 O   0  0  0  0  0  0  0  0  0  0  0  0
   -0.4404   -0.0497    0.5467 C   0  0  0  0  0  0  0  0  0  0  0  0
   -0.2483    1.2298    0.3210 C   0  0  0  0  0  0  0  0  0  0  0  0
   -1.5703   -0.7606    0.0873 N   0  0  0  0  0  0  0  0  0  0  0  0
   -2.6305   -0.2336   -0.6568 C   0  0  0  0  0  0  0  0  0  0  0  0
   -3.7630   -1.1606   -1.0610 C   0  0  0  0  0  0  0  0  0  0  0  0
   -2.7193    0.9433   -1.0160 O   0  0  0  0  0  0  0  0  0  0  0  0
    3.3427   -1.4785    1.8190 H   0  0  0  0  0  0  0  0  0  0  0  0
    2.0566   -1.8797    3.0739 H   0  0  0  0  0  0  0  0  0  0  0  0
    3.1688   -0.5137    3.3369 H   0  0  0  0  0  0  0  0  0  0  0  0
    1.9753    0.7888    1.7075 H   0  0  0  0  0  0  0  0  0  0  0  0
    0.6425    1.7306    0.6989 H   0  0  0  0  0  0  0  0  0  0  0  0
   -0.9085    1.8775   -0.2261 H   0  0  0  0  0  0  0  0  0  0  0  0
   -1.6239   -1.7989    0.3289 H   0  0  0  0  0  0  0  0  0  0  0  0
   -3.3332   -2.1693   -1.2294 H   0  0  0  0  0  0  0  0  0  0  0  0
   -4.2545   -0.7683   -1.9602 H   0  0  0  0  0  0  0  0  0  0  0  0
   -4.5043   -1.2401   -0.2385 H   0  0  0  0  0  0  0  0  0  0  0  0
  1  2  1  0
  1 11  1  0
  1 12  1  0
  1 13  1  0
  2  3  1  0
  2 14  1  0
  3  4  2  0
  3  5  1  0
  5  6  2  3
  5  7  1  0
  6 15  1  0
  6 16  1  0
  7  8  1  0
  7 17  1  0
  8  9  1  0
  8 10  2  0
  9 18  1  0
  9 19  1  0
  9 20  1  0
M  END

> <RosettaParamsInstructions>
M  ROOT 7
M  POLY_N_BB 7
M  POLY_CA_BB 5
M  POLY_C_BB 3
M  POLY_O_BB 4
M  POLY_IGNORE 1 10 9 14 11 12 13 18 19 20
M  POLY_UPPER 2
M  POLY_LOWER 8
M  POLY_CHG 0
M  POLY_PROPERTIES PROTEIN POLYMER ALPHA_AA ALIPHATIC
M  END

$$$$
DHA_new
     RDKit          3D

 20 19  0  0  0  0  0  0  0  0999 V2000
    2.7117   -1.0428    2.5027 C   0  0  0  0  0  0  0  0  0  0  0  0
    1.7209   -0.2385    1.8106 N   0  0  0  0  0  0  0  0  0  0  0  0
    0.5833   -0.8596    1.2959 C   0  0  0  0  0  0  0  0  0  0  0  0
    0.3974   -2.1257    1.4228 O   0  0  0  0  0  0  0  0  0  0  0  0
   -0.4426   -0.0754    0.5880 C   0  0  0  0  0  0  0  0  0  0  0  0
   -0.2646    1.2147    0.4524 C   0  0  0  0  0  0  0  0  0  0  0  0
   -1.5701   -0.7440    0.0874 N   0  0  0  0  0  0  0  0  0  0  0  0
   -2.6646   -0.2211   -0.6109 C   0  0  0  0  0  0  0  0  0  0  0  0
   -3.8017   -1.1187   -1.0753 C   0  0  0  0  0  0  0  0  0  0  0  0
   -2.8437    0.9774   -0.9269 O   0  0  0  0  0  0  0  0  0  0  0  0
    3.2490   -1.7358    1.8026 H   0  0  0  0  0  0  0  0  0  0  0  0
    2.1669   -1.6618    3.2637 H   0  0  0  0  0  0  0  0  0  0  0  0
    3.4825   -0.4510    3.0036 H   0  0  0  0  0  0  0  0  0  0  0  0
    1.8940    0.7619    1.7248 H   0  0  0  0  0  0  0  0  0  0  0  0
   -1.0026    1.8124   -0.0628 H   0  0  0  0  0  0  0  0  0  0  0  0
    0.5764    1.7824    0.8133 H   0  0  0  0  0  0  0  0  0  0  0  0
   -1.6098   -1.8082    0.2584 H   0  0  0  0  0  0  0  0  0  0  0  0
   -4.5932   -1.1707   -0.3299 H   0  0  0  0  0  0  0  0  0  0  0  0
   -4.1853   -0.7865   -2.0529 H   0  0  0  0  0  0  0  0  0  0  0  0
   -3.4104   -2.1612   -1.2266 H   0  0  0  0  0  0  0  0  0  0  0  0
  1  2  1  0
  1 11  1  0
  1 12  1  0
  1 13  1  0
  2  3  1  0
  2 14  1  0
  3  4  2  0
  3  5  1  0
  5  6  2  3
  5  7  1  0
  6 15  1  0
  6 16  1  0
  7  8  1  0
  7 17  1  0
  8  9  1  0
  8 10  2  0
  9 18  1  0
  9 19  1  0
  9 20  1  0
M  END

> <RosettaParamsInstructions>
M  ROOT 7
M  POLY_N_BB 7
M  POLY_CA_BB 5
M  POLY_C_BB 3
M  POLY_O_BB 4
M  POLY_IGNORE 1 10 9 14 11 12 13 18 19 20
M  POLY_UPPER 2
M  POLY_LOWER 8
M  POLY_CHG 0
M  POLY_PROPERTIES PROTEIN POLYMER ALPHA_AA ALIPHATIC
M  END

$$$$
DHA_new
     RDKit          3D

 20 19  0  0  0  0  0  0  0  0999 V2000
    2.6434   -1.0735    2.5701 C   0  0  0  0  0  0  0  0  0  0  0  0
    1.6712   -0.1955    1.9049 N   0  0  0  0  0  0  0  0  0  0  0  0
    0.5617   -0.7847    1.2893 C   0  0  0  0  0  0  0  0  0  0  0  0
    0.4561   -2.0489    1.3398 O   0  0  0  0  0  0  0  0  0  0  0  0
   -0.4636   -0.0171    0.6019 C   0  0  0  0  0  0  0  0  0  0  0  0
   -0.3740    1.2791    0.5389 C   0  0  0  0  0  0  0  0  0  0  0  0
   -1.5270   -0.7169    0.0241 N   0  0  0  0  0  0  0  0  0  0  0  0
   -2.6377   -0.2488   -0.6876 C   0  0  0  0  0  0  0  0  0  0  0  0
   -3.6659   -1.2022   -1.2213 C   0  0  0  0  0  0  0  0  0  0  0  0
   -2.8485    0.9439   -0.9224 O   0  0  0  0  0  0  0  0  0  0  0  0
    2.2354   -1.3711    3.5415 H   0  0  0  0  0  0  0  0  0  0  0  0
    3.6243   -0.6136    2.6722 H   0  0  0  0  0  0  0  0  0  0  0  0
    2.7124   -1.9843    1.9243 H   0  0  0  0  0  0  0  0  0  0  0  0
    1.8721    0.8316    1.9332 H   0  0  0  0  0  0  0  0  0  0  0  0
    0.4822    1.7779    1.0100 H   0  0  0  0  0  0  0  0  0  0  0  0
   -1.1288    1.8533    0.0321 H   0  0  0  0  0  0  0  0  0  0  0  0
   -1.5026   -1.7987    0.1366 H   0  0  0  0  0  0  0  0  0  0  0  0
   -4.6582   -0.8234   -0.9064 H   0  0  0  0  0  0  0  0  0  0  0  0
   -3.5139   -2.1674   -0.7333 H   0  0  0  0  0  0  0  0  0  0  0  0
   -3.5452   -1.2918   -2.3070 H   0  0  0  0  0  0  0  0  0  0  0  0
  1  2  1  0
  1 11  1  0
  1 12  1  0
  1 13  1  0
  2  3  1  0
  2 14  1  0
  3  4  2  0
  3  5  1  0
  5  6  2  3
  5  7  1  0
  6 15  1  0
  6 16  1  0
  7  8  1  0
  7 17  1  0
  8  9  1  0
  8 10  2  0
  9 18  1  0
  9 19  1  0
  9 20  1  0
M  END

> <RosettaParamsInstructions>
M  ROOT 7
M  POLY_N_BB 7
M  POLY_CA_BB 5
M  POLY_C_BB 3
M  POLY_O_BB 4
M  POLY_IGNORE 1 10 9 14 11 12 13 18 19 20
M  POLY_UPPER 2
M  POLY_LOWER 8
M  POLY_CHG 0
M  POLY_PROPERTIES PROTEIN POLYMER ALPHA_AA ALIPHATIC
M  END

$$$$
DHA_new
     RDKit          3D

 20 19  0  0  0  0  0  0  0  0999 V2000
    2.6463   -1.0858    2.5716 C   0  0  0  0  0  0  0  0  0  0  0  0
    1.6833   -0.2121    1.8589 N   0  0  0  0  0  0  0  0  0  0  0  0
    0.5650   -0.8622    1.3142 C   0  0  0  0  0  0  0  0  0  0  0  0
    0.3961   -2.1159    1.4284 O   0  0  0  0  0  0  0  0  0  0  0  0
   -0.4451   -0.0564    0.5854 C   0  0  0  0  0  0  0  0  0  0  0  0
   -0.3049    1.2290    0.4490 C   0  0  0  0  0  0  0  0  0  0  0  0
   -1.5573   -0.7546    0.0525 N   0  0  0  0  0  0  0  0  0  0  0  0
   -2.6329   -0.2316   -0.6666 C   0  0  0  0  0  0  0  0  0  0  0  0
   -3.7194   -1.1620   -1.1449 C   0  0  0  0  0  0  0  0  0  0  0  0
   -2.7791    0.9593   -0.9547 O   0  0  0  0  0  0  0  0  0  0  0  0
    2.0965   -1.9062    3.0485 H   0  0  0  0  0  0  0  0  0  0  0  0
    3.3953   -1.4173    1.8266 H   0  0  0  0  0  0  0  0  0  0  0  0
    3.1532   -0.4740    3.3404 H   0  0  0  0  0  0  0  0  0  0  0  0
    1.8716    0.8018    1.7968 H   0  0  0  0  0  0  0  0  0  0  0  0
    0.5429    1.7837    0.8514 H   0  0  0  0  0  0  0  0  0  0  0  0
   -1.0195    1.8343   -0.0726 H   0  0  0  0  0  0  0  0  0  0  0  0
   -1.5649   -1.8252    0.2301 H   0  0  0  0  0  0  0  0  0  0  0  0
   -4.6810   -0.6231   -1.2041 H   0  0  0  0  0  0  0  0  0  0  0  0
   -3.8510   -1.9961   -0.4477 H   0  0  0  0  0  0  0  0  0  0  0  0
   -3.4017   -1.5377   -2.1221 H   0  0  0  0  0  0  0  0  0  0  0  0
  1  2  1  0
  1 11  1  0
  1 12  1  0
  1 13  1  0
  2  3  1  0
  2 14  1  0
  3  4  2  0
  3  5  1  0
  5  6  2  3
  5  7  1  0
  6 15  1  0
  6 16  1  0
  7  8  1  0
  7 17  1  0
  8  9  1  0
  8 10  2  0
  9 18  1  0
  9 19  1  0
  9 20  1  0
M  END

> <RosettaParamsInstructions>
M  ROOT 7
M  POLY_N_BB 7
M  POLY_CA_BB 5
M  POLY_C_BB 3
M  POLY_O_BB 4
M  POLY_IGNORE 1 10 9 14 11 12 13 18 19 20
M  POLY_UPPER 2
M  POLY_LOWER 8
M  POLY_CHG 0
M  POLY_PROPERTIES PROTEIN POLYMER ALPHA_AA ALIPHATIC
M  END

$$$$
DHA_new
     RDKit          3D

 20 19  0  0  0  0  0  0  0  0999 V2000
    2.6286   -1.0763    2.5709 C   0  0  0  0  0  0  0  0  0  0  0  0
    1.6983   -0.2309    1.8190 N   0  0  0  0  0  0  0  0  0  0  0  0
    0.5419   -0.8049    1.3099 C   0  0  0  0  0  0  0  0  0  0  0  0
    0.3203   -2.0362    1.5060 O   0  0  0  0  0  0  0  0  0  0  0  0
   -0.4528   -0.0569    0.5467 C   0  0  0  0  0  0  0  0  0  0  0  0
   -0.2492    1.2217    0.3279 C   0  0  0  0  0  0  0  0  0  0  0  0
   -1.5913   -0.7582    0.0810 N   0  0  0  0  0  0  0  0  0  0  0  0
   -2.6451   -0.2215   -0.6605 C   0  0  0  0  0  0  0  0  0  0  0  0
   -3.7679   -1.1612   -1.0549 C   0  0  0  0  0  0  0  0  0  0  0  0
   -2.7341    0.9718   -1.0239 O   0  0  0  0  0  0  0  0  0  0  0  0
    2.5646   -2.1194    2.1981 H   0  0  0  0  0  0  0  0  0  0  0  0
    2.3901   -1.0237    3.6424 H   0  0  0  0  0  0  0  0  0  0  0  0
    3.6608   -0.7349    2.4361 H   0  0  0  0  0  0  0  0  0  0  0  0
    1.9734    0.7543    1.7178 H   0  0  0  0  0  0  0  0  0  0  0  0
    0.6556    1.7286    0.7112 H   0  0  0  0  0  0  0  0  0  0  0  0
   -0.9109    1.8827   -0.2226 H   0  0  0  0  0  0  0  0  0  0  0  0
   -1.6480   -1.7947    0.3202 H   0  0  0  0  0  0  0  0  0  0  0  0
   -4.5392   -1.1964   -0.2830 H   0  0  0  0  0  0  0  0  0  0  0  0
   -3.3535   -2.1818   -1.1832 H   0  0  0  0  0  0  0  0  0  0  0  0
   -4.1480   -0.8144   -2.0183 H   0  0  0  0  0  0  0  0  0  0  0  0
  1  2  1  0
  1 11  1  0
  1 12  1  0
  1 13  1  0
  2  3  1  0
  2 14  1  0
  3  4  2  0
  3  5  1  0
  5  6  2  3
  5  7  1  0
  6 15  1  0
  6 16  1  0
  7  8  1  0
  7 17  1  0
  8  9  1  0
  8 10  2  0
  9 18  1  0
  9 19  1  0
  9 20  1  0
M  END

> <RosettaParamsInstructions>
M  ROOT 7
M  POLY_N_BB 7
M  POLY_CA_BB 5
M  POLY_C_BB 3
M  POLY_O_BB 4
M  POLY_IGNORE 1 10 9 14 11 12 13 18 19 20
M  POLY_UPPER 2
M  POLY_LOWER 8
M  POLY_CHG 0
M  POLY_PROPERTIES PROTEIN POLYMER ALPHA_AA ALIPHATIC
M  END

$$$$
DHA_new
     RDKit          3D

 20 19  0  0  0  0  0  0  0  0999 V2000
    2.6652   -1.0643    2.5994 C   0  0  0  0  0  0  0  0  0  0  0  0
    1.6941   -0.2176    1.8818 N   0  0  0  0  0  0  0  0  0  0  0  0
    0.5620   -0.8167    1.3172 C   0  0  0  0  0  0  0  0  0  0  0  0
    0.3744   -2.0557    1.4191 O   0  0  0  0  0  0  0  0  0  0  0  0
   -0.4873   -0.0627    0.5694 C   0  0  0  0  0  0  0  0  0  0  0  0
   -0.3481    1.2273    0.4302 C   0  0  0  0  0  0  0  0  0  0  0  0
   -1.5827   -0.7789    0.0465 N   0  0  0  0  0  0  0  0  0  0  0  0
   -2.6433   -0.2304   -0.6727 C   0  0  0  0  0  0  0  0  0  0  0  0
   -3.7264   -1.1827   -1.1477 C   0  0  0  0  0  0  0  0  0  0  0  0
   -2.7789    0.9616   -0.9570 O   0  0  0  0  0  0  0  0  0  0  0  0
    3.6933   -0.7504    2.3107 H   0  0  0  0  0  0  0  0  0  0  0  0
    2.5299   -1.0040    3.6822 H   0  0  0  0  0  0  0  0  0  0  0  0
    2.5502   -2.1019    2.2329 H   0  0  0  0  0  0  0  0  0  0  0  0
    1.9235    0.7959    1.8431 H   0  0  0  0  0  0  0  0  0  0  0  0
   -1.0407    1.8396   -0.0831 H   0  0  0  0  0  0  0  0  0  0  0  0
    0.5202    1.7554    0.8514 H   0  0  0  0  0  0  0  0  0  0  0  0
   -1.6325   -1.8444    0.2000 H   0  0  0  0  0  0  0  0  0  0  0  0
   -4.0169   -0.8296   -2.1462 H   0  0  0  0  0  0  0  0  0  0  0  0
   -4.5532   -1.0972   -0.4168 H   0  0  0  0  0  0  0  0  0  0  0  0
   -3.3094   -2.1957   -1.2196 H   0  0  0  0  0  0  0  0  0  0  0  0
  1  2  1  0
  1 11  1  0
  1 12  1  0
  1 13  1  0
  2  3  1  0
  2 14  1  0
  3  4  2  0
  3  5  1  0
  5  6  2  3
  5  7  1  0
  6 15  1  0
  6 16  1  0
  7  8  1  0
  7 17  1  0
  8  9  1  0
  8 10  2  0
  9 18  1  0
  9 19  1  0
  9 20  1  0
M  END

> <RosettaParamsInstructions>
M  ROOT 7
M  POLY_N_BB 7
M  POLY_CA_BB 5
M  POLY_C_BB 3
M  POLY_O_BB 4
M  POLY_IGNORE 1 10 9 14 11 12 13 18 19 20
M  POLY_UPPER 2
M  POLY_LOWER 8
M  POLY_CHG 0
M  POLY_PROPERTIES PROTEIN POLYMER ALPHA_AA ALIPHATIC
M  END

$$$$
DHA_new
     RDKit          3D

 20 19  0  0  0  0  0  0  0  0999 V2000
    2.6720   -1.0789    2.5624 C   0  0  0  0  0  0  0  0  0  0  0  0
    1.6879   -0.2170    1.8561 N   0  0  0  0  0  0  0  0  0  0  0  0
    0.5659   -0.8332    1.2972 C   0  0  0  0  0  0  0  0  0  0  0  0
    0.4024   -2.0867    1.3949 O   0  0  0  0  0  0  0  0  0  0  0  0
   -0.4582   -0.0584    0.5811 C   0  0  0  0  0  0  0  0  0  0  0  0
   -0.3534    1.2425    0.4418 C   0  0  0  0  0  0  0  0  0  0  0  0
   -1.5741   -0.7652    0.0395 N   0  0  0  0  0  0  0  0  0  0  0  0
   -2.6359   -0.2240   -0.6627 C   0  0  0  0  0  0  0  0  0  0  0  0
   -3.7100   -1.1983   -1.1386 C   0  0  0  0  0  0  0  0  0  0  0  0
   -2.7727    0.9795   -0.9277 O   0  0  0  0  0  0  0  0  0  0  0  0
    2.0508   -1.8230    3.1023 H   0  0  0  0  0  0  0  0  0  0  0  0
    3.2075   -0.4845    3.3374 H   0  0  0  0  0  0  0  0  0  0  0  0
    3.3579   -1.5393    1.8224 H   0  0  0  0  0  0  0  0  0  0  0  0
    1.8596    0.7906    1.8010 H   0  0  0  0  0  0  0  0  0  0  0  0
   -1.0188    1.9085   -0.0485 H   0  0  0  0  0  0  0  0  0  0  0  0
    0.5260    1.7437    0.8771 H   0  0  0  0  0  0  0  0  0  0  0  0
   -1.5694   -1.8101    0.2032 H   0  0  0  0  0  0  0  0  0  0  0  0
   -4.4075   -1.4148   -0.3171 H   0  0  0  0  0  0  0  0  0  0  0  0
   -3.1672   -2.0670   -1.5223 H   0  0  0  0  0  0  0  0  0  0  0  0
   -4.2692   -0.7168   -1.9586 H   0  0  0  0  0  0  0  0  0  0  0  0
  1  2  1  0
  1 11  1  0
  1 12  1  0
  1 13  1  0
  2  3  1  0
  2 14  1  0
  3  4  2  0
  3  5  1  0
  5  6  2  3
  5  7  1  0
  6 15  1  0
  6 16  1  0
  7  8  1  0
  7 17  1  0
  8  9  1  0
  8 10  2  0
  9 18  1  0
  9 19  1  0
  9 20  1  0
M  END

> <RosettaParamsInstructions>
M  ROOT 7
M  POLY_N_BB 7
M  POLY_CA_BB 5
M  POLY_C_BB 3
M  POLY_O_BB 4
M  POLY_IGNORE 1 10 9 14 11 12 13 18 19 20
M  POLY_UPPER 2
M  POLY_LOWER 8
M  POLY_CHG 0
M  POLY_PROPERTIES PROTEIN POLYMER ALPHA_AA ALIPHATIC
M  END

$$$$
DHA_new
     RDKit          3D

 20 19  0  0  0  0  0  0  0  0999 V2000
    2.6113   -1.0813    2.6445 C   0  0  0  0  0  0  0  0  0  0  0  0
    1.6788   -0.2350    1.8686 N   0  0  0  0  0  0  0  0  0  0  0  0
    0.5402   -0.8418    1.3386 C   0  0  0  0  0  0  0  0  0  0  0  0
    0.3270   -2.0568    1.5197 O   0  0  0  0  0  0  0  0  0  0  0  0
   -0.4428   -0.0782    0.5535 C   0  0  0  0  0  0  0  0  0  0  0  0
   -0.2933    1.2010    0.3178 C   0  0  0  0  0  0  0  0  0  0  0  0
   -1.5752   -0.7669    0.0481 N   0  0  0  0  0  0  0  0  0  0  0  0
   -2.6035   -0.2112   -0.7113 C   0  0  0  0  0  0  0  0  0  0  0  0
   -3.7203   -1.1434   -1.1453 C   0  0  0  0  0  0  0  0  0  0  0  0
   -2.7177    0.9676   -1.0800 O   0  0  0  0  0  0  0  0  0  0  0  0
    2.1369   -2.0242    2.9210 H   0  0  0  0  0  0  0  0  0  0  0  0
    3.5205   -1.2627    2.0662 H   0  0  0  0  0  0  0  0  0  0  0  0
    2.8969   -0.4606    3.5307 H   0  0  0  0  0  0  0  0  0  0  0  0
    1.9217    0.7704    1.7587 H   0  0  0  0  0  0  0  0  0  0  0  0
    0.5970    1.7233    0.7200 H   0  0  0  0  0  0  0  0  0  0  0  0
   -0.9468    1.8242   -0.2336 H   0  0  0  0  0  0  0  0  0  0  0  0
   -1.6265   -1.8166    0.2845 H   0  0  0  0  0  0  0  0  0  0  0  0
   -4.3193   -0.7160   -1.9509 H   0  0  0  0  0  0  0  0  0  0  0  0
   -3.2141   -2.0888   -1.4299 H   0  0  0  0  0  0  0  0  0  0  0  0
   -4.3773   -1.3554   -0.2798 H   0  0  0  0  0  0  0  0  0  0  0  0
  1  2  1  0
  1 11  1  0
  1 12  1  0
  1 13  1  0
  2  3  1  0
  2 14  1  0
  3  4  2  0
  3  5  1  0
  5  6  2  3
  5  7  1  0
  6 15  1  0
  6 16  1  0
  7  8  1  0
  7 17  1  0
  8  9  1  0
  8 10  2  0
  9 18  1  0
  9 19  1  0
  9 20  1  0
M  END

> <RosettaParamsInstructions>
M  ROOT 7
M  POLY_N_BB 7
M  POLY_CA_BB 5
M  POLY_C_BB 3
M  POLY_O_BB 4
M  POLY_IGNORE 1 10 9 14 11 12 13 18 19 20
M  POLY_UPPER 2
M  POLY_LOWER 8
M  POLY_CHG 0
M  POLY_PROPERTIES PROTEIN POLYMER ALPHA_AA ALIPHATIC
M  END

$$$$
DHA_new
     RDKit          3D

 20 19  0  0  0  0  0  0  0  0999 V2000
    2.6634   -1.0729    2.5883 C   0  0  0  0  0  0  0  0  0  0  0  0
    1.6852   -0.2495    1.8286 N   0  0  0  0  0  0  0  0  0  0  0  0
    0.5302   -0.8416    1.3040 C   0  0  0  0  0  0  0  0  0  0  0  0
    0.3386   -2.0672    1.4855 O   0  0  0  0  0  0  0  0  0  0  0  0
   -0.4595   -0.0865    0.5539 C   0  0  0  0  0  0  0  0  0  0  0  0
   -0.2725    1.1863    0.3586 C   0  0  0  0  0  0  0  0  0  0  0  0
   -1.5728   -0.7825    0.0782 N   0  0  0  0  0  0  0  0  0  0  0  0
   -2.6278   -0.2611   -0.6539 C   0  0  0  0  0  0  0  0  0  0  0  0
   -3.7696   -1.1675   -1.0960 C   0  0  0  0  0  0  0  0  0  0  0  0
   -2.6968    0.9323   -0.9779 O   0  0  0  0  0  0  0  0  0  0  0  0
    2.4414   -2.1202    2.3800 H   0  0  0  0  0  0  0  0  0  0  0  0
    2.5709   -0.8035    3.6441 H   0  0  0  0  0  0  0  0  0  0  0  0
    3.6817   -0.7660    2.2575 H   0  0  0  0  0  0  0  0  0  0  0  0
    1.9249    0.7446    1.7300 H   0  0  0  0  0  0  0  0  0  0  0  0
   -0.9493    1.8230   -0.1830 H   0  0  0  0  0  0  0  0  0  0  0  0
    0.6170    1.6854    0.7523 H   0  0  0  0  0  0  0  0  0  0  0  0
   -1.6343   -1.8311    0.2924 H   0  0  0  0  0  0  0  0  0  0  0  0
   -3.7511   -1.1466   -2.1864 H   0  0  0  0  0  0  0  0  0  0  0  0
   -4.6841   -0.6594   -0.7298 H   0  0  0  0  0  0  0  0  0  0  0  0
   -3.6421   -2.1681   -0.6857 H   0  0  0  0  0  0  0  0  0  0  0  0
  1  2  1  0
  1 11  1  0
  1 12  1  0
  1 13  1  0
  2  3  1  0
  2 14  1  0
  3  4  2  0
  3  5  1  0
  5  6  2  3
  5  7  1  0
  6 15  1  0
  6 16  1  0
  7  8  1  0
  7 17  1  0
  8  9  1  0
  8 10  2  0
  9 18  1  0
  9 19  1  0
  9 20  1  0
M  END

> <RosettaParamsInstructions>
M  ROOT 7
M  POLY_N_BB 7
M  POLY_CA_BB 5
M  POLY_C_BB 3
M  POLY_O_BB 4
M  POLY_IGNORE 1 10 9 14 11 12 13 18 19 20
M  POLY_UPPER 2
M  POLY_LOWER 8
M  POLY_CHG 0
M  POLY_PROPERTIES PROTEIN POLYMER ALPHA_AA ALIPHATIC
M  END

$$$$
DHA_new
     RDKit          3D

 20 19  0  0  0  0  0  0  0  0999 V2000
    2.6680   -1.0522    2.5821 C   0  0  0  0  0  0  0  0  0  0  0  0
    1.6951   -0.2123    1.8655 N   0  0  0  0  0  0  0  0  0  0  0  0
    0.5643   -0.8287    1.3098 C   0  0  0  0  0  0  0  0  0  0  0  0
    0.4274   -2.0940    1.4497 O   0  0  0  0  0  0  0  0  0  0  0  0
   -0.4750   -0.0775    0.5697 C   0  0  0  0  0  0  0  0  0  0  0  0
   -0.3363    1.2044    0.4279 C   0  0  0  0  0  0  0  0  0  0  0  0
   -1.5688   -0.7966    0.0536 N   0  0  0  0  0  0  0  0  0  0  0  0
   -2.6327   -0.2513   -0.6650 C   0  0  0  0  0  0  0  0  0  0  0  0
   -3.7411   -1.1599   -1.1567 C   0  0  0  0  0  0  0  0  0  0  0  0
   -2.7922    0.9389   -0.9657 O   0  0  0  0  0  0  0  0  0  0  0  0
    3.6831   -0.6697    2.3812 H   0  0  0  0  0  0  0  0  0  0  0  0
    2.5909   -2.0780    2.2008 H   0  0  0  0  0  0  0  0  0  0  0  0
    2.4975   -1.0119    3.6662 H   0  0  0  0  0  0  0  0  0  0  0  0
    1.9357    0.7964    1.8309 H   0  0  0  0  0  0  0  0  0  0  0  0
    0.5395    1.6996    0.8552 H   0  0  0  0  0  0  0  0  0  0  0  0
   -1.0431    1.8301   -0.0954 H   0  0  0  0  0  0  0  0  0  0  0  0
   -1.5672   -1.8628    0.2401 H   0  0  0  0  0  0  0  0  0  0  0  0
   -3.4835   -2.2145   -1.0194 H   0  0  0  0  0  0  0  0  0  0  0  0
   -3.9222   -0.9038   -2.2185 H   0  0  0  0  0  0  0  0  0  0  0  0
   -4.6458   -0.9082   -0.5712 H   0  0  0  0  0  0  0  0  0  0  0  0
  1  2  1  0
  1 11  1  0
  1 12  1  0
  1 13  1  0
  2  3  1  0
  2 14  1  0
  3  4  2  0
  3  5  1  0
  5  6  2  3
  5  7  1  0
  6 15  1  0
  6 16  1  0
  7  8  1  0
  7 17  1  0
  8  9  1  0
  8 10  2  0
  9 18  1  0
  9 19  1  0
  9 20  1  0
M  END

> <RosettaParamsInstructions>
M  ROOT 7
M  POLY_N_BB 7
M  POLY_CA_BB 5
M  POLY_C_BB 3
M  POLY_O_BB 4
M  POLY_IGNORE 1 10 9 14 11 12 13 18 19 20
M  POLY_UPPER 2
M  POLY_LOWER 8
M  POLY_CHG 0
M  POLY_PROPERTIES PROTEIN POLYMER ALPHA_AA ALIPHATIC
M  END

$$$$
DHA_new
     RDKit          3D

 20 19  0  0  0  0  0  0  0  0999 V2000
    2.6757   -1.0944    2.5748 C   0  0  0  0  0  0  0  0  0  0  0  0
    1.6920   -0.2505    1.8609 N   0  0  0  0  0  0  0  0  0  0  0  0
    0.5515   -0.8241    1.2893 C   0  0  0  0  0  0  0  0  0  0  0  0
    0.3812   -2.0811    1.3971 O   0  0  0  0  0  0  0  0  0  0  0  0
   -0.4624   -0.0342    0.5667 C   0  0  0  0  0  0  0  0  0  0  0  0
   -0.3316    1.2604    0.4297 C   0  0  0  0  0  0  0  0  0  0  0  0
   -1.5682   -0.7459    0.0381 N   0  0  0  0  0  0  0  0  0  0  0  0
   -2.6509   -0.2175   -0.6817 C   0  0  0  0  0  0  0  0  0  0  0  0
   -3.7303   -1.1889   -1.1521 C   0  0  0  0  0  0  0  0  0  0  0  0
   -2.7766    0.9919   -0.9545 O   0  0  0  0  0  0  0  0  0  0  0  0
    2.1528   -2.0026    2.8929 H   0  0  0  0  0  0  0  0  0  0  0  0
    3.5396   -1.2910    1.9392 H   0  0  0  0  0  0  0  0  0  0  0  0
    2.9802   -0.5308    3.4668 H   0  0  0  0  0  0  0  0  0  0  0  0
    1.8861    0.7669    1.8066 H   0  0  0  0  0  0  0  0  0  0  0  0
    0.5628    1.7308    0.8746 H   0  0  0  0  0  0  0  0  0  0  0  0
   -1.0426    1.8875   -0.0891 H   0  0  0  0  0  0  0  0  0  0  0  0
   -1.5769   -1.8131    0.2089 H   0  0  0  0  0  0  0  0  0  0  0  0
   -4.5291   -0.6295   -1.6569 H   0  0  0  0  0  0  0  0  0  0  0  0
   -4.1287   -1.6836   -0.2665 H   0  0  0  0  0  0  0  0  0  0  0  0
   -3.2311   -1.9024   -1.8038 H   0  0  0  0  0  0  0  0  0  0  0  0
  1  2  1  0
  1 11  1  0
  1 12  1  0
  1 13  1  0
  2  3  1  0
  2 14  1  0
  3  4  2  0
  3  5  1  0
  5  6  2  3
  5  7  1  0
  6 15  1  0
  6 16  1  0
  7  8  1  0
  7 17  1  0
  8  9  1  0
  8 10  2  0
  9 18  1  0
  9 19  1  0
  9 20  1  0
M  END

> <RosettaParamsInstructions>
M  ROOT 7
M  POLY_N_BB 7
M  POLY_CA_BB 5
M  POLY_C_BB 3
M  POLY_O_BB 4
M  POLY_IGNORE 1 10 9 14 11 12 13 18 19 20
M  POLY_UPPER 2
M  POLY_LOWER 8
M  POLY_CHG 0
M  POLY_PROPERTIES PROTEIN POLYMER ALPHA_AA ALIPHATIC
M  END

$$$$
DHA_new
     RDKit          3D

 20 19  0  0  0  0  0  0  0  0999 V2000
    2.6953   -1.0402    2.5933 C   0  0  0  0  0  0  0  0  0  0  0  0
    1.6982   -0.2264    1.8748 N   0  0  0  0  0  0  0  0  0  0  0  0
    0.5654   -0.8103    1.3036 C   0  0  0  0  0  0  0  0  0  0  0  0
    0.4111   -2.0737    1.4183 O   0  0  0  0  0  0  0  0  0  0  0  0
   -0.4841   -0.0633    0.5651 C   0  0  0  0  0  0  0  0  0  0  0  0
   -0.3194    1.2304    0.4515 C   0  0  0  0  0  0  0  0  0  0  0  0
   -1.5801   -0.7796    0.0370 N   0  0  0  0  0  0  0  0  0  0  0  0
   -2.6417   -0.2477   -0.6737 C   0  0  0  0  0  0  0  0  0  0  0  0
   -3.7393   -1.1669   -1.1697 C   0  0  0  0  0  0  0  0  0  0  0  0
   -2.7659    0.9478   -0.9411 O   0  0  0  0  0  0  0  0  0  0  0  0
    2.4655   -2.1170    2.3915 H   0  0  0  0  0  0  0  0  0  0  0  0
    3.7119   -0.8562    2.2128 H   0  0  0  0  0  0  0  0  0  0  0  0
    2.5733   -0.8369    3.6647 H   0  0  0  0  0  0  0  0  0  0  0  0
    1.9157    0.7783    1.8393 H   0  0  0  0  0  0  0  0  0  0  0  0
   -1.0258    1.8397   -0.0629 H   0  0  0  0  0  0  0  0  0  0  0  0
    0.5538    1.7255    0.8845 H   0  0  0  0  0  0  0  0  0  0  0  0
   -1.5852   -1.8399    0.2065 H   0  0  0  0  0  0  0  0  0  0  0  0
   -3.6583   -1.3229   -2.2614 H   0  0  0  0  0  0  0  0  0  0  0  0
   -4.6986   -0.6494   -0.9480 H   0  0  0  0  0  0  0  0  0  0  0  0
   -3.6984   -2.1435   -0.6452 H   0  0  0  0  0  0  0  0  0  0  0  0
  1  2  1  0
  1 11  1  0
  1 12  1  0
  1 13  1  0
  2  3  1  0
  2 14  1  0
  3  4  2  0
  3  5  1  0
  5  6  2  3
  5  7  1  0
  6 15  1  0
  6 16  1  0
  7  8  1  0
  7 17  1  0
  8  9  1  0
  8 10  2  0
  9 18  1  0
  9 19  1  0
  9 20  1  0
M  END

> <RosettaParamsInstructions>
M  ROOT 7
M  POLY_N_BB 7
M  POLY_CA_BB 5
M  POLY_C_BB 3
M  POLY_O_BB 4
M  POLY_IGNORE 1 10 9 14 11 12 13 18 19 20
M  POLY_UPPER 2
M  POLY_LOWER 8
M  POLY_CHG 0
M  POLY_PROPERTIES PROTEIN POLYMER ALPHA_AA ALIPHATIC
M  END

$$$$
DHA_new
     RDKit          3D

 20 19  0  0  0  0  0  0  0  0999 V2000
    2.7148   -1.0780    2.5063 C   0  0  0  0  0  0  0  0  0  0  0  0
    1.6990   -0.2541    1.8660 N   0  0  0  0  0  0  0  0  0  0  0  0
    0.5839   -0.8278    1.2665 C   0  0  0  0  0  0  0  0  0  0  0  0
    0.4521   -2.0864    1.2792 O   0  0  0  0  0  0  0  0  0  0  0  0
   -0.4963   -0.0737    0.5941 C   0  0  0  0  0  0  0  0  0  0  0  0
   -0.4034    1.2204    0.5567 C   0  0  0  0  0  0  0  0  0  0  0  0
   -1.5844   -0.7763    0.0192 N   0  0  0  0  0  0  0  0  0  0  0  0
   -2.6771   -0.2215   -0.6465 C   0  0  0  0  0  0  0  0  0  0  0  0
   -3.7236   -1.1867   -1.1790 C   0  0  0  0  0  0  0  0  0  0  0  0
   -2.8630    1.0013   -0.8388 O   0  0  0  0  0  0  0  0  0  0  0  0
    2.5951   -1.0196    3.6143 H   0  0  0  0  0  0  0  0  0  0  0  0
    2.6531   -2.1219    2.1750 H   0  0  0  0  0  0  0  0  0  0  0  0
    3.7059   -0.6617    2.2512 H   0  0  0  0  0  0  0  0  0  0  0  0
    1.8693    0.7615    1.8925 H   0  0  0  0  0  0  0  0  0  0  0  0
    0.4509    1.7391    1.0104 H   0  0  0  0  0  0  0  0  0  0  0  0
   -1.1112    1.8905    0.1038 H   0  0  0  0  0  0  0  0  0  0  0  0
   -1.5633   -1.8379    0.1058 H   0  0  0  0  0  0  0  0  0  0  0  0
   -4.5223   -1.1852   -0.4278 H   0  0  0  0  0  0  0  0  0  0  0  0
   -4.0917   -0.7474   -2.1055 H   0  0  0  0  0  0  0  0  0  0  0  0
   -3.2944   -2.1869   -1.3023 H   0  0  0  0  0  0  0  0  0  0  0  0
  1  2  1  0
  1 11  1  0
  1 12  1  0
  1 13  1  0
  2  3  1  0
  2 14  1  0
  3  4  2  0
  3  5  1  0
  5  6  2  3
  5  7  1  0
  6 15  1  0
  6 16  1  0
  7  8  1  0
  7 17  1  0
  8  9  1  0
  8 10  2  0
  9 18  1  0
  9 19  1  0
  9 20  1  0
M  END

> <RosettaParamsInstructions>
M  ROOT 7
M  POLY_N_BB 7
M  POLY_CA_BB 5
M  POLY_C_BB 3
M  POLY_O_BB 4
M  POLY_IGNORE 1 10 9 14 11 12 13 18 19 20
M  POLY_UPPER 2
M  POLY_LOWER 8
M  POLY_CHG 0
M  POLY_PROPERTIES PROTEIN POLYMER ALPHA_AA ALIPHATIC
M  END

$$$$
DHA_new
     RDKit          3D

 20 19  0  0  0  0  0  0  0  0999 V2000
    2.6641   -1.0565    2.5794 C   0  0  0  0  0  0  0  0  0  0  0  0
    1.6849   -0.2396    1.8609 N   0  0  0  0  0  0  0  0  0  0  0  0
    0.5443   -0.8249    1.2931 C   0  0  0  0  0  0  0  0  0  0  0  0
    0.3919   -2.0906    1.4251 O   0  0  0  0  0  0  0  0  0  0  0  0
   -0.4711   -0.0528    0.5610 C   0  0  0  0  0  0  0  0  0  0  0  0
   -0.3238    1.2330    0.4225 C   0  0  0  0  0  0  0  0  0  0  0  0
   -1.5637   -0.7610    0.0430 N   0  0  0  0  0  0  0  0  0  0  0  0
   -2.6361   -0.2454   -0.6776 C   0  0  0  0  0  0  0  0  0  0  0  0
   -3.7271   -1.1793   -1.1552 C   0  0  0  0  0  0  0  0  0  0  0  0
   -2.7466    0.9535   -0.9525 O   0  0  0  0  0  0  0  0  0  0  0  0
    2.1646   -1.9665    2.9788 H   0  0  0  0  0  0  0  0  0  0  0  0
    3.0992   -0.5073    3.4273 H   0  0  0  0  0  0  0  0  0  0  0  0
    3.4700   -1.3447    1.8852 H   0  0  0  0  0  0  0  0  0  0  0  0
    1.9050    0.7658    1.8142 H   0  0  0  0  0  0  0  0  0  0  0  0
    0.5447    1.7521    0.8421 H   0  0  0  0  0  0  0  0  0  0  0  0
   -1.0014    1.8685   -0.0870 H   0  0  0  0  0  0  0  0  0  0  0  0
   -1.6051   -1.8273    0.2053 H   0  0  0  0  0  0  0  0  0  0  0  0
   -3.8517   -1.9440   -0.3616 H   0  0  0  0  0  0  0  0  0  0  0  0
   -3.4801   -1.5857   -2.1398 H   0  0  0  0  0  0  0  0  0  0  0  0
   -4.6685   -0.5994   -1.2234 H   0  0  0  0  0  0  0  0  0  0  0  0
  1  2  1  0
  1 11  1  0
  1 12  1  0
  1 13  1  0
  2  3  1  0
  2 14  1  0
  3  4  2  0
  3  5  1  0
  5  6  2  3
  5  7  1  0
  6 15  1  0
  6 16  1  0
  7  8  1  0
  7 17  1  0
  8  9  1  0
  8 10  2  0
  9 18  1  0
  9 19  1  0
  9 20  1  0
M  END

> <RosettaParamsInstructions>
M  ROOT 7
M  POLY_N_BB 7
M  POLY_CA_BB 5
M  POLY_C_BB 3
M  POLY_O_BB 4
M  POLY_IGNORE 1 10 9 14 11 12 13 18 19 20
M  POLY_UPPER 2
M  POLY_LOWER 8
M  POLY_CHG 0
M  POLY_PROPERTIES PROTEIN POLYMER ALPHA_AA ALIPHATIC
M  END

$$$$
DHA_new
     RDKit          3D

 20 19  0  0  0  0  0  0  0  0999 V2000
    2.6952   -1.0598    2.5052 C   0  0  0  0  0  0  0  0  0  0  0  0
    1.6923   -0.2411    1.8092 N   0  0  0  0  0  0  0  0  0  0  0  0
    0.5516   -0.8409    1.2679 C   0  0  0  0  0  0  0  0  0  0  0  0
    0.4112   -2.0831    1.3923 O   0  0  0  0  0  0  0  0  0  0  0  0
   -0.4664   -0.0826    0.5733 C   0  0  0  0  0  0  0  0  0  0  0  0
   -0.3293    1.2008    0.4403 C   0  0  0  0  0  0  0  0  0  0  0  0
   -1.5682   -0.7809    0.0698 N   0  0  0  0  0  0  0  0  0  0  0  0
   -2.6519   -0.2530   -0.6240 C   0  0  0  0  0  0  0  0  0  0  0  0
   -3.7808   -1.1505   -1.1101 C   0  0  0  0  0  0  0  0  0  0  0  0
   -2.7811    0.9536   -0.8937 O   0  0  0  0  0  0  0  0  0  0  0  0
    3.5033   -1.3282    1.8254 H   0  0  0  0  0  0  0  0  0  0  0  0
    2.1788   -1.9642    2.8457 H   0  0  0  0  0  0  0  0  0  0  0  0
    3.1369   -0.4920    3.3639 H   0  0  0  0  0  0  0  0  0  0  0  0
    1.9548    0.7728    1.7902 H   0  0  0  0  0  0  0  0  0  0  0  0
    0.5681    1.7026    0.8613 H   0  0  0  0  0  0  0  0  0  0  0  0
   -1.0347    1.8513   -0.0614 H   0  0  0  0  0  0  0  0  0  0  0  0
   -1.5983   -1.8461    0.2270 H   0  0  0  0  0  0  0  0  0  0  0  0
   -4.6173   -0.9788   -0.3867 H   0  0  0  0  0  0  0  0  0  0  0  0
   -4.0528   -0.8375   -2.1202 H   0  0  0  0  0  0  0  0  0  0  0  0
   -3.4178   -2.1947   -1.0343 H   0  0  0  0  0  0  0  0  0  0  0  0
  1  2  1  0
  1 11  1  0
  1 12  1  0
  1 13  1  0
  2  3  1  0
  2 14  1  0
  3  4  2  0
  3  5  1  0
  5  6  2  3
  5  7  1  0
  6 15  1  0
  6 16  1  0
  7  8  1  0
  7 17  1  0
  8  9  1  0
  8 10  2  0
  9 18  1  0
  9 19  1  0
  9 20  1  0
M  END

> <RosettaParamsInstructions>
M  ROOT 7
M  POLY_N_BB 7
M  POLY_CA_BB 5
M  POLY_C_BB 3
M  POLY_O_BB 4
M  POLY_IGNORE 1 10 9 14 11 12 13 18 19 20
M  POLY_UPPER 2
M  POLY_LOWER 8
M  POLY_CHG 0
M  POLY_PROPERTIES PROTEIN POLYMER ALPHA_AA ALIPHATIC
M  END

$$$$
DHA_new
     RDKit          3D

 20 19  0  0  0  0  0  0  0  0999 V2000
    2.6483   -1.0644    2.5794 C   0  0  0  0  0  0  0  0  0  0  0  0
    1.6710   -0.2232    1.8641 N   0  0  0  0  0  0  0  0  0  0  0  0
    0.5648   -0.8303    1.3110 C   0  0  0  0  0  0  0  0  0  0  0  0
    0.4042   -2.0937    1.4241 O   0  0  0  0  0  0  0  0  0  0  0  0
   -0.4721   -0.0675    0.5733 C   0  0  0  0  0  0  0  0  0  0  0  0
   -0.3260    1.2256    0.4468 C   0  0  0  0  0  0  0  0  0  0  0  0
   -1.5673   -0.7766    0.0436 N   0  0  0  0  0  0  0  0  0  0  0  0
   -2.6314   -0.2514   -0.6710 C   0  0  0  0  0  0  0  0  0  0  0  0
   -3.7474   -1.1458   -1.1826 C   0  0  0  0  0  0  0  0  0  0  0  0
   -2.7637    0.9443   -0.9460 O   0  0  0  0  0  0  0  0  0  0  0  0
    3.6739   -0.6589    2.3466 H   0  0  0  0  0  0  0  0  0  0  0  0
    2.5265   -0.9914    3.6683 H   0  0  0  0  0  0  0  0  0  0  0  0
    2.5575   -2.1099    2.2251 H   0  0  0  0  0  0  0  0  0  0  0  0
    1.8665    0.7827    1.8139 H   0  0  0  0  0  0  0  0  0  0  0  0
   -1.0375    1.8548   -0.0768 H   0  0  0  0  0  0  0  0  0  0  0  0
    0.5512    1.7033    0.8860 H   0  0  0  0  0  0  0  0  0  0  0  0
   -1.5585   -1.8359    0.2231 H   0  0  0  0  0  0  0  0  0  0  0  0
   -3.8589   -1.9359   -0.4008 H   0  0  0  0  0  0  0  0  0  0  0  0
   -3.4121   -1.5880   -2.1361 H   0  0  0  0  0  0  0  0  0  0  0  0
   -4.6955   -0.5899   -1.2511 H   0  0  0  0  0  0  0  0  0  0  0  0
  1  2  1  0
  1 11  1  0
  1 12  1  0
  1 13  1  0
  2  3  1  0
  2 14  1  0
  3  4  2  0
  3  5  1  0
  5  6  2  3
  5  7  1  0
  6 15  1  0
  6 16  1  0
  7  8  1  0
  7 17  1  0
  8  9  1  0
  8 10  2  0
  9 18  1  0
  9 19  1  0
  9 20  1  0
M  END

> <RosettaParamsInstructions>
M  ROOT 7
M  POLY_N_BB 7
M  POLY_CA_BB 5
M  POLY_C_BB 3
M  POLY_O_BB 4
M  POLY_IGNORE 1 10 9 14 11 12 13 18 19 20
M  POLY_UPPER 2
M  POLY_LOWER 8
M  POLY_CHG 0
M  POLY_PROPERTIES PROTEIN POLYMER ALPHA_AA ALIPHATIC
M  END

$$$$
DHA_new
     RDKit          3D

 20 19  0  0  0  0  0  0  0  0999 V2000
    2.6625   -1.0677    2.5625 C   0  0  0  0  0  0  0  0  0  0  0  0
    1.6546   -0.2309    1.9030 N   0  0  0  0  0  0  0  0  0  0  0  0
    0.5563   -0.8536    1.2864 C   0  0  0  0  0  0  0  0  0  0  0  0
    0.4754   -2.1271    1.3225 O   0  0  0  0  0  0  0  0  0  0  0  0
   -0.4740   -0.0877    0.6182 C   0  0  0  0  0  0  0  0  0  0  0  0
   -0.3874    1.2178    0.5834 C   0  0  0  0  0  0  0  0  0  0  0  0
   -1.5458   -0.7803    0.0220 N   0  0  0  0  0  0  0  0  0  0  0  0
   -2.6315   -0.2143   -0.6660 C   0  0  0  0  0  0  0  0  0  0  0  0
   -3.6636   -1.1817   -1.2201 C   0  0  0  0  0  0  0  0  0  0  0  0
   -2.8573    0.9855   -0.8811 O   0  0  0  0  0  0  0  0  0  0  0  0
    3.0226   -0.5010    3.4431 H   0  0  0  0  0  0  0  0  0  0  0  0
    3.5053   -1.2429    1.8689 H   0  0  0  0  0  0  0  0  0  0  0  0
    2.1832   -2.0168    2.8230 H   0  0  0  0  0  0  0  0  0  0  0  0
    1.8109    0.7955    1.9278 H   0  0  0  0  0  0  0  0  0  0  0  0
   -1.1109    1.8898    0.1052 H   0  0  0  0  0  0  0  0  0  0  0  0
    0.4345    1.7981    1.0372 H   0  0  0  0  0  0  0  0  0  0  0  0
   -1.5128   -1.8492    0.1128 H   0  0  0  0  0  0  0  0  0  0  0  0
   -4.1414   -0.7363   -2.1323 H   0  0  0  0  0  0  0  0  0  0  0  0
   -4.4477   -1.3507   -0.4666 H   0  0  0  0  0  0  0  0  0  0  0  0
   -3.1395   -2.0989   -1.5089 H   0  0  0  0  0  0  0  0  0  0  0  0
  1  2  1  0
  1 11  1  0
  1 12  1  0
  1 13  1  0
  2  3  1  0
  2 14  1  0
  3  4  2  0
  3  5  1  0
  5  6  2  3
  5  7  1  0
  6 15  1  0
  6 16  1  0
  7  8  1  0
  7 17  1  0
  8  9  1  0
  8 10  2  0
  9 18  1  0
  9 19  1  0
  9 20  1  0
M  END

> <RosettaParamsInstructions>
M  ROOT 7
M  POLY_N_BB 7
M  POLY_CA_BB 5
M  POLY_C_BB 3
M  POLY_O_BB 4
M  POLY_IGNORE 1 10 9 14 11 12 13 18 19 20
M  POLY_UPPER 2
M  POLY_LOWER 8
M  POLY_CHG 0
M  POLY_PROPERTIES PROTEIN POLYMER ALPHA_AA ALIPHATIC
M  END

$$$$
DHA_new
     RDKit          3D

 20 19  0  0  0  0  0  0  0  0999 V2000
    2.6380   -1.0362    2.6635 C   0  0  0  0  0  0  0  0  0  0  0  0
    1.7140   -0.2541    1.8247 N   0  0  0  0  0  0  0  0  0  0  0  0
    0.5294   -0.8075    1.3435 C   0  0  0  0  0  0  0  0  0  0  0  0
    0.2668   -2.0049    1.6473 O   0  0  0  0  0  0  0  0  0  0  0  0
   -0.4324   -0.0646    0.4975 C   0  0  0  0  0  0  0  0  0  0  0  0
   -0.1804    1.1616    0.1765 C   0  0  0  0  0  0  0  0  0  0  0  0
   -1.5842   -0.7401    0.0822 N   0  0  0  0  0  0  0  0  0  0  0  0
   -2.6244   -0.2609   -0.7090 C   0  0  0  0  0  0  0  0  0  0  0  0
   -3.8022   -1.1416   -1.0612 C   0  0  0  0  0  0  0  0  0  0  0  0
   -2.6689    0.8863   -1.1732 O   0  0  0  0  0  0  0  0  0  0  0  0
    3.2950   -1.6684    2.0553 H   0  0  0  0  0  0  0  0  0  0  0  0
    2.0368   -1.7006    3.3457 H   0  0  0  0  0  0  0  0  0  0  0  0
    3.2452   -0.3782    3.3140 H   0  0  0  0  0  0  0  0  0  0  0  0
    2.0255    0.7175    1.6357 H   0  0  0  0  0  0  0  0  0  0  0  0
   -0.8236    1.7660   -0.4303 H   0  0  0  0  0  0  0  0  0  0  0  0
    0.7269    1.6607    0.5164 H   0  0  0  0  0  0  0  0  0  0  0  0
   -1.6931   -1.7603    0.4081 H   0  0  0  0  0  0  0  0  0  0  0  0
   -4.2694   -0.8218   -2.0093 H   0  0  0  0  0  0  0  0  0  0  0  0
   -3.4653   -2.1942   -1.1470 H   0  0  0  0  0  0  0  0  0  0  0  0
   -4.5401   -1.0108   -0.2396 H   0  0  0  0  0  0  0  0  0  0  0  0
  1  2  1  0
  1 11  1  0
  1 12  1  0
  1 13  1  0
  2  3  1  0
  2 14  1  0
  3  4  2  0
  3  5  1  0
  5  6  2  3
  5  7  1  0
  6 15  1  0
  6 16  1  0
  7  8  1  0
  7 17  1  0
  8  9  1  0
  8 10  2  0
  9 18  1  0
  9 19  1  0
  9 20  1  0
M  END

> <RosettaParamsInstructions>
M  ROOT 7
M  POLY_N_BB 7
M  POLY_CA_BB 5
M  POLY_C_BB 3
M  POLY_O_BB 4
M  POLY_IGNORE 1 10 9 14 11 12 13 18 19 20
M  POLY_UPPER 2
M  POLY_LOWER 8
M  POLY_CHG 0
M  POLY_PROPERTIES PROTEIN POLYMER ALPHA_AA ALIPHATIC
M  END

$$$$
DHA_new
     RDKit          3D

 20 19  0  0  0  0  0  0  0  0999 V2000
    2.6626   -1.0764    2.5560 C   0  0  0  0  0  0  0  0  0  0  0  0
    1.7074   -0.2339    1.8270 N   0  0  0  0  0  0  0  0  0  0  0  0
    0.5462   -0.8175    1.2991 C   0  0  0  0  0  0  0  0  0  0  0  0
    0.3563   -2.0499    1.4662 O   0  0  0  0  0  0  0  0  0  0  0  0
   -0.4562   -0.0696    0.5646 C   0  0  0  0  0  0  0  0  0  0  0  0
   -0.2935    1.2032    0.3732 C   0  0  0  0  0  0  0  0  0  0  0  0
   -1.5858   -0.7597    0.0784 N   0  0  0  0  0  0  0  0  0  0  0  0
   -2.6642   -0.2323   -0.6502 C   0  0  0  0  0  0  0  0  0  0  0  0
   -3.7721   -1.1678   -1.0694 C   0  0  0  0  0  0  0  0  0  0  0  0
   -2.7511    0.9643   -0.9660 O   0  0  0  0  0  0  0  0  0  0  0  0
    3.5482   -1.1941    1.9290 H   0  0  0  0  0  0  0  0  0  0  0  0
    2.2259   -2.0535    2.8115 H   0  0  0  0  0  0  0  0  0  0  0  0
    2.9541   -0.5537    3.4823 H   0  0  0  0  0  0  0  0  0  0  0  0
    1.9763    0.7663    1.7565 H   0  0  0  0  0  0  0  0  0  0  0  0
    0.5970    1.6908    0.7690 H   0  0  0  0  0  0  0  0  0  0  0  0
   -0.9509    1.8748   -0.1490 H   0  0  0  0  0  0  0  0  0  0  0  0
   -1.6334   -1.8059    0.2845 H   0  0  0  0  0  0  0  0  0  0  0  0
   -3.4189   -2.2055   -1.0064 H   0  0  0  0  0  0  0  0  0  0  0  0
   -4.6630   -0.9614   -0.4749 H   0  0  0  0  0  0  0  0  0  0  0  0
   -3.9918   -0.9703   -2.1405 H   0  0  0  0  0  0  0  0  0  0  0  0
  1  2  1  0
  1 11  1  0
  1 12  1  0
  1 13  1  0
  2  3  1  0
  2 14  1  0
  3  4  2  0
  3  5  1  0
  5  6  2  3
  5  7  1  0
  6 15  1  0
  6 16  1  0
  7  8  1  0
  7 17  1  0
  8  9  1  0
  8 10  2  0
  9 18  1  0
  9 19  1  0
  9 20  1  0
M  END

> <RosettaParamsInstructions>
M  ROOT 7
M  POLY_N_BB 7
M  POLY_CA_BB 5
M  POLY_C_BB 3
M  POLY_O_BB 4
M  POLY_IGNORE 1 10 9 14 11 12 13 18 19 20
M  POLY_UPPER 2
M  POLY_LOWER 8
M  POLY_CHG 0
M  POLY_PROPERTIES PROTEIN POLYMER ALPHA_AA ALIPHATIC
M  END

$$$$
DHA_new
     RDKit          3D

 20 19  0  0  0  0  0  0  0  0999 V2000
    2.6841   -1.0595    2.5875 C   0  0  0  0  0  0  0  0  0  0  0  0
    1.7024   -0.2366    1.8748 N   0  0  0  0  0  0  0  0  0  0  0  0
    0.5673   -0.8254    1.3038 C   0  0  0  0  0  0  0  0  0  0  0  0
    0.4141   -2.0796    1.4199 O   0  0  0  0  0  0  0  0  0  0  0  0
   -0.4472   -0.0734    0.5835 C   0  0  0  0  0  0  0  0  0  0  0  0
   -0.2831    1.2323    0.4654 C   0  0  0  0  0  0  0  0  0  0  0  0
   -1.5614   -0.7683    0.0422 N   0  0  0  0  0  0  0  0  0  0  0  0
   -2.6420   -0.2708   -0.6754 C   0  0  0  0  0  0  0  0  0  0  0  0
   -3.7520   -1.1623   -1.1819 C   0  0  0  0  0  0  0  0  0  0  0  0
   -2.7918    0.9326   -0.9614 O   0  0  0  0  0  0  0  0  0  0  0  0
    3.1655   -0.4221    3.3547 H   0  0  0  0  0  0  0  0  0  0  0  0
    2.1507   -1.8956    3.0766 H   0  0  0  0  0  0  0  0  0  0  0  0
    3.4122   -1.4554    1.8689 H   0  0  0  0  0  0  0  0  0  0  0  0
    1.8667    0.7797    1.8043 H   0  0  0  0  0  0  0  0  0  0  0  0
    0.5490    1.7998    0.8615 H   0  0  0  0  0  0  0  0  0  0  0  0
   -1.0062    1.8426   -0.0603 H   0  0  0  0  0  0  0  0  0  0  0  0
   -1.5498   -1.8337    0.2242 H   0  0  0  0  0  0  0  0  0  0  0  0
   -3.3564   -2.1865   -1.3166 H   0  0  0  0  0  0  0  0  0  0  0  0
   -4.5559   -1.1766   -0.4173 H   0  0  0  0  0  0  0  0  0  0  0  0
   -4.1728   -0.7934   -2.1134 H   0  0  0  0  0  0  0  0  0  0  0  0
  1  2  1  0
  1 11  1  0
  1 12  1  0
  1 13  1  0
  2  3  1  0
  2 14  1  0
  3  4  2  0
  3  5  1  0
  5  6  2  3
  5  7  1  0
  6 15  1  0
  6 16  1  0
  7  8  1  0
  7 17  1  0
  8  9  1  0
  8 10  2  0
  9 18  1  0
  9 19  1  0
  9 20  1  0
M  END

> <RosettaParamsInstructions>
M  ROOT 7
M  POLY_N_BB 7
M  POLY_CA_BB 5
M  POLY_C_BB 3
M  POLY_O_BB 4
M  POLY_IGNORE 1 10 9 14 11 12 13 18 19 20
M  POLY_UPPER 2
M  POLY_LOWER 8
M  POLY_CHG 0
M  POLY_PROPERTIES PROTEIN POLYMER ALPHA_AA ALIPHATIC
M  END

$$$$
DHA_new
     RDKit          3D

 20 19  0  0  0  0  0  0  0  0999 V2000
    2.6605   -1.0448    2.5889 C   0  0  0  0  0  0  0  0  0  0  0  0
    1.7022   -0.2209    1.8326 N   0  0  0  0  0  0  0  0  0  0  0  0
    0.5598   -0.8366    1.3292 C   0  0  0  0  0  0  0  0  0  0  0  0
    0.3515   -2.0915    1.5222 O   0  0  0  0  0  0  0  0  0  0  0  0
   -0.4362   -0.0663    0.5645 C   0  0  0  0  0  0  0  0  0  0  0  0
   -0.2716    1.2039    0.3426 C   0  0  0  0  0  0  0  0  0  0  0  0
   -1.5676   -0.7606    0.0871 N   0  0  0  0  0  0  0  0  0  0  0  0
   -2.6338   -0.2660   -0.6493 C   0  0  0  0  0  0  0  0  0  0  0  0
   -3.7854   -1.1299   -1.0961 C   0  0  0  0  0  0  0  0  0  0  0  0
   -2.7207    0.9265   -0.9965 O   0  0  0  0  0  0  0  0  0  0  0  0
    3.4986   -1.2485    1.8739 H   0  0  0  0  0  0  0  0  0  0  0  0
    2.1844   -1.9869    2.9076 H   0  0  0  0  0  0  0  0  0  0  0  0
    3.0318   -0.5287    3.4801 H   0  0  0  0  0  0  0  0  0  0  0  0
    1.9441    0.7666    1.7255 H   0  0  0  0  0  0  0  0  0  0  0  0
   -0.9490    1.8174   -0.1998 H   0  0  0  0  0  0  0  0  0  0  0  0
    0.6232    1.7032    0.7326 H   0  0  0  0  0  0  0  0  0  0  0  0
   -1.6388   -1.8226    0.3108 H   0  0  0  0  0  0  0  0  0  0  0  0
   -3.6323   -1.4264   -2.1543 H   0  0  0  0  0  0  0  0  0  0  0  0
   -4.7137   -0.5582   -0.9531 H   0  0  0  0  0  0  0  0  0  0  0  0
   -3.8135   -2.0820   -0.5077 H   0  0  0  0  0  0  0  0  0  0  0  0
  1  2  1  0
  1 11  1  0
  1 12  1  0
  1 13  1  0
  2  3  1  0
  2 14  1  0
  3  4  2  0
  3  5  1  0
  5  6  2  3
  5  7  1  0
  6 15  1  0
  6 16  1  0
  7  8  1  0
  7 17  1  0
  8  9  1  0
  8 10  2  0
  9 18  1  0
  9 19  1  0
  9 20  1  0
M  END

> <RosettaParamsInstructions>
M  ROOT 7
M  POLY_N_BB 7
M  POLY_CA_BB 5
M  POLY_C_BB 3
M  POLY_O_BB 4
M  POLY_IGNORE 1 10 9 14 11 12 13 18 19 20
M  POLY_UPPER 2
M  POLY_LOWER 8
M  POLY_CHG 0
M  POLY_PROPERTIES PROTEIN POLYMER ALPHA_AA ALIPHATIC
M  END

$$$$
DHA_new
     RDKit          3D

 20 19  0  0  0  0  0  0  0  0999 V2000
    2.2929   -1.6086    2.4066 C   0  0  0  0  0  0  0  0  0  0  0  0
    1.0952   -1.2301    1.6593 N   0  0  0  0  0  0  0  0  0  0  0  0
    0.8268    0.1066    1.3137 C   0  0  0  0  0  0  0  0  0  0  0  0
    1.6770    0.9915    1.6797 O   0  0  0  0  0  0  0  0  0  0  0  0
   -0.3679    0.5103    0.5646 C   0  0  0  0  0  0  0  0  0  0  0  0
   -0.5145    1.7874    0.2980 C   0  0  0  0  0  0  0  0  0  0  0  0
   -1.3178   -0.4489    0.1515 N   0  0  0  0  0  0  0  0  0  0  0  0
   -2.5013   -0.2143   -0.5667 C   0  0  0  0  0  0  0  0  0  0  0  0
   -3.3631   -1.4049   -0.8959 C   0  0  0  0  0  0  0  0  0  0  0  0
   -2.9331    0.8826   -0.9728 O   0  0  0  0  0  0  0  0  0  0  0  0
    3.1619   -1.6677    1.7203 H   0  0  0  0  0  0  0  0  0  0  0  0
    2.4309   -0.8225    3.1830 H   0  0  0  0  0  0  0  0  0  0  0  0
    2.1871   -2.5848    2.9034 H   0  0  0  0  0  0  0  0  0  0  0  0
    0.4731   -2.0115    1.4105 H   0  0  0  0  0  0  0  0  0  0  0  0
    0.2409    2.5087    0.6324 H   0  0  0  0  0  0  0  0  0  0  0  0
   -1.3299    2.2062   -0.2337 H   0  0  0  0  0  0  0  0  0  0  0  0
   -1.1222   -1.4660    0.4095 H   0  0  0  0  0  0  0  0  0  0  0  0
   -3.8265   -1.7878    0.0293 H   0  0  0  0  0  0  0  0  0  0  0  0
   -2.6590   -2.1920   -1.2402 H   0  0  0  0  0  0  0  0  0  0  0  0
   -4.0569   -1.2066   -1.7116 H   0  0  0  0  0  0  0  0  0  0  0  0
  1  2  1  0
  1 11  1  0
  1 12  1  0
  1 13  1  0
  2  3  1  0
  2 14  1  0
  3  4  2  0
  3  5  1  0
  5  6  2  3
  5  7  1  0
  6 15  1  0
  6 16  1  0
  7  8  1  0
  7 17  1  0
  8  9  1  0
  8 10  2  0
  9 18  1  0
  9 19  1  0
  9 20  1  0
M  END

> <RosettaParamsInstructions>
M  ROOT 7
M  POLY_N_BB 7
M  POLY_CA_BB 5
M  POLY_C_BB 3
M  POLY_O_BB 4
M  POLY_IGNORE 1 10 9 14 11 12 13 18 19 20
M  POLY_UPPER 2
M  POLY_LOWER 8
M  POLY_CHG 0
M  POLY_PROPERTIES PROTEIN POLYMER ALPHA_AA ALIPHATIC
M  END

$$$$
DHA_new
     RDKit          3D

 20 19  0  0  0  0  0  0  0  0999 V2000
    2.6374   -1.1107    2.5647 C   0  0  0  0  0  0  0  0  0  0  0  0
    1.6868   -0.2160    1.8610 N   0  0  0  0  0  0  0  0  0  0  0  0
    0.5529   -0.8212    1.2933 C   0  0  0  0  0  0  0  0  0  0  0  0
    0.3903   -2.0893    1.4038 O   0  0  0  0  0  0  0  0  0  0  0  0
   -0.4490   -0.0257    0.5757 C   0  0  0  0  0  0  0  0  0  0  0  0
   -0.3273    1.2640    0.4376 C   0  0  0  0  0  0  0  0  0  0  0  0
   -1.5552   -0.7253    0.0396 N   0  0  0  0  0  0  0  0  0  0  0  0
   -2.6359   -0.2199   -0.6772 C   0  0  0  0  0  0  0  0  0  0  0  0
   -3.7001   -1.1781   -1.1466 C   0  0  0  0  0  0  0  0  0  0  0  0
   -2.8129    0.9793   -0.9759 O   0  0  0  0  0  0  0  0  0  0  0  0
    2.0740   -1.9652    2.9652 H   0  0  0  0  0  0  0  0  0  0  0  0
    3.4260   -1.3917    1.8569 H   0  0  0  0  0  0  0  0  0  0  0  0
    3.0633   -0.5320    3.3870 H   0  0  0  0  0  0  0  0  0  0  0  0
    1.9133    0.7855    1.8310 H   0  0  0  0  0  0  0  0  0  0  0  0
   -1.0371    1.9062   -0.0836 H   0  0  0  0  0  0  0  0  0  0  0  0
    0.5624    1.7456    0.8819 H   0  0  0  0  0  0  0  0  0  0  0  0
   -1.5602   -1.7790    0.2079 H   0  0  0  0  0  0  0  0  0  0  0  0
   -4.6672   -0.6458   -1.2062 H   0  0  0  0  0  0  0  0  0  0  0  0
   -3.7584   -1.9735   -0.3776 H   0  0  0  0  0  0  0  0  0  0  0  0
   -3.4095   -1.6593   -2.0976 H   0  0  0  0  0  0  0  0  0  0  0  0
  1  2  1  0
  1 11  1  0
  1 12  1  0
  1 13  1  0
  2  3  1  0
  2 14  1  0
  3  4  2  0
  3  5  1  0
  5  6  2  3
  5  7  1  0
  6 15  1  0
  6 16  1  0
  7  8  1  0
  7 17  1  0
  8  9  1  0
  8 10  2  0
  9 18  1  0
  9 19  1  0
  9 20  1  0
M  END

> <RosettaParamsInstructions>
M  ROOT 7
M  POLY_N_BB 7
M  POLY_CA_BB 5
M  POLY_C_BB 3
M  POLY_O_BB 4
M  POLY_IGNORE 1 10 9 14 11 12 13 18 19 20
M  POLY_UPPER 2
M  POLY_LOWER 8
M  POLY_CHG 0
M  POLY_PROPERTIES PROTEIN POLYMER ALPHA_AA ALIPHATIC
M  END

$$$$
DHA_new
     RDKit          3D

 20 19  0  0  0  0  0  0  0  0999 V2000
    2.6788   -1.0604    2.5668 C   0  0  0  0  0  0  0  0  0  0  0  0
    1.7012   -0.2256    1.8652 N   0  0  0  0  0  0  0  0  0  0  0  0
    0.5825   -0.8227    1.3012 C   0  0  0  0  0  0  0  0  0  0  0  0
    0.4340   -2.0803    1.4076 O   0  0  0  0  0  0  0  0  0  0  0  0
   -0.4604   -0.0559    0.5717 C   0  0  0  0  0  0  0  0  0  0  0  0
   -0.3173    1.2372    0.4568 C   0  0  0  0  0  0  0  0  0  0  0  0
   -1.5471   -0.7742    0.0450 N   0  0  0  0  0  0  0  0  0  0  0  0
   -2.6374   -0.2718   -0.6716 C   0  0  0  0  0  0  0  0  0  0  0  0
   -3.7383   -1.1629   -1.1800 C   0  0  0  0  0  0  0  0  0  0  0  0
   -2.7807    0.9360   -0.9413 O   0  0  0  0  0  0  0  0  0  0  0  0
    3.6775   -0.8959    2.1531 H   0  0  0  0  0  0  0  0  0  0  0  0
    2.6033   -0.7498    3.6447 H   0  0  0  0  0  0  0  0  0  0  0  0
    2.4329   -2.1345    2.4636 H   0  0  0  0  0  0  0  0  0  0  0  0
    1.9229    0.7785    1.8408 H   0  0  0  0  0  0  0  0  0  0  0  0
   -1.0156    1.8551   -0.0478 H   0  0  0  0  0  0  0  0  0  0  0  0
    0.5399    1.7544    0.8799 H   0  0  0  0  0  0  0  0  0  0  0  0
   -1.5616   -1.8467    0.2015 H   0  0  0  0  0  0  0  0  0  0  0  0
   -3.4342   -2.2262   -1.1527 H   0  0  0  0  0  0  0  0  0  0  0  0
   -4.0876   -0.8529   -2.1786 H   0  0  0  0  0  0  0  0  0  0  0  0
   -4.5993   -1.0538   -0.4850 H   0  0  0  0  0  0  0  0  0  0  0  0
  1  2  1  0
  1 11  1  0
  1 12  1  0
  1 13  1  0
  2  3  1  0
  2 14  1  0
  3  4  2  0
  3  5  1  0
  5  6  2  3
  5  7  1  0
  6 15  1  0
  6 16  1  0
  7  8  1  0
  7 17  1  0
  8  9  1  0
  8 10  2  0
  9 18  1  0
  9 19  1  0
  9 20  1  0
M  END

> <RosettaParamsInstructions>
M  ROOT 7
M  POLY_N_BB 7
M  POLY_CA_BB 5
M  POLY_C_BB 3
M  POLY_O_BB 4
M  POLY_IGNORE 1 10 9 14 11 12 13 18 19 20
M  POLY_UPPER 2
M  POLY_LOWER 8
M  POLY_CHG 0
M  POLY_PROPERTIES PROTEIN POLYMER ALPHA_AA ALIPHATIC
M  END

$$$$
DHA_new
     RDKit          3D

 20 19  0  0  0  0  0  0  0  0999 V2000
    2.6555   -1.0692    2.5815 C   0  0  0  0  0  0  0  0  0  0  0  0
    1.6724   -0.2290    1.8644 N   0  0  0  0  0  0  0  0  0  0  0  0
    0.5483   -0.8345    1.2957 C   0  0  0  0  0  0  0  0  0  0  0  0
    0.4273   -2.1002    1.4269 O   0  0  0  0  0  0  0  0  0  0  0  0
   -0.4470   -0.0471    0.5798 C   0  0  0  0  0  0  0  0  0  0  0  0
   -0.2918    1.2342    0.4663 C   0  0  0  0  0  0  0  0  0  0  0  0
   -1.5549   -0.7678    0.0391 N   0  0  0  0  0  0  0  0  0  0  0  0
   -2.6272   -0.2521   -0.6787 C   0  0  0  0  0  0  0  0  0  0  0  0
   -3.7096   -1.1787   -1.1712 C   0  0  0  0  0  0  0  0  0  0  0  0
   -2.7666    0.9414   -0.9527 O   0  0  0  0  0  0  0  0  0  0  0  0
    2.5858   -2.1040    2.2202 H   0  0  0  0  0  0  0  0  0  0  0  0
    3.6464   -0.6681    2.3308 H   0  0  0  0  0  0  0  0  0  0  0  0
    2.4273   -1.0251    3.6576 H   0  0  0  0  0  0  0  0  0  0  0  0
    1.8671    0.7753    1.8187 H   0  0  0  0  0  0  0  0  0  0  0  0
    0.5543    1.8057    0.8758 H   0  0  0  0  0  0  0  0  0  0  0  0
   -1.0087    1.8473   -0.0567 H   0  0  0  0  0  0  0  0  0  0  0  0
   -1.5786   -1.8356    0.1964 H   0  0  0  0  0  0  0  0  0  0  0  0
   -4.0815   -0.8646   -2.1618 H   0  0  0  0  0  0  0  0  0  0  0  0
   -4.5791   -1.0724   -0.4709 H   0  0  0  0  0  0  0  0  0  0  0  0
   -3.3457   -2.2079   -1.1205 H   0  0  0  0  0  0  0  0  0  0  0  0
  1  2  1  0
  1 11  1  0
  1 12  1  0
  1 13  1  0
  2  3  1  0
  2 14  1  0
  3  4  2  0
  3  5  1  0
  5  6  2  3
  5  7  1  0
  6 15  1  0
  6 16  1  0
  7  8  1  0
  7 17  1  0
  8  9  1  0
  8 10  2  0
  9 18  1  0
  9 19  1  0
  9 20  1  0
M  END

> <RosettaParamsInstructions>
M  ROOT 7
M  POLY_N_BB 7
M  POLY_CA_BB 5
M  POLY_C_BB 3
M  POLY_O_BB 4
M  POLY_IGNORE 1 10 9 14 11 12 13 18 19 20
M  POLY_UPPER 2
M  POLY_LOWER 8
M  POLY_CHG 0
M  POLY_PROPERTIES PROTEIN POLYMER ALPHA_AA ALIPHATIC
M  END

$$$$
DHA_new
     RDKit          3D

 20 19  0  0  0  0  0  0  0  0999 V2000
    2.6667   -1.0327    2.6025 C   0  0  0  0  0  0  0  0  0  0  0  0
    1.6957   -0.2520    1.8278 N   0  0  0  0  0  0  0  0  0  0  0  0
    0.5526   -0.8640    1.3405 C   0  0  0  0  0  0  0  0  0  0  0  0
    0.3485   -2.1053    1.5674 O   0  0  0  0  0  0  0  0  0  0  0  0
   -0.4535   -0.1101    0.5530 C   0  0  0  0  0  0  0  0  0  0  0  0
   -0.2777    1.1593    0.3020 C   0  0  0  0  0  0  0  0  0  0  0  0
   -1.5943   -0.7964    0.0877 N   0  0  0  0  0  0  0  0  0  0  0  0
   -2.6269   -0.2441   -0.6591 C   0  0  0  0  0  0  0  0  0  0  0  0
   -3.7994   -1.1107   -1.0926 C   0  0  0  0  0  0  0  0  0  0  0  0
   -2.6689    0.9330   -1.0098 O   0  0  0  0  0  0  0  0  0  0  0  0
    3.4325   -1.4370    1.8879 H   0  0  0  0  0  0  0  0  0  0  0  0
    2.1101   -1.8546    3.0826 H   0  0  0  0  0  0  0  0  0  0  0  0
    3.1879   -0.3895    3.3235 H   0  0  0  0  0  0  0  0  0  0  0  0
    1.9318    0.7350    1.6898 H   0  0  0  0  0  0  0  0  0  0  0  0
    0.6236    1.6559    0.6823 H   0  0  0  0  0  0  0  0  0  0  0  0
   -0.9116    1.8283   -0.2480 H   0  0  0  0  0  0  0  0  0  0  0  0
   -1.6698   -1.8462    0.3354 H   0  0  0  0  0  0  0  0  0  0  0  0
   -4.7017   -0.4976   -1.0258 H   0  0  0  0  0  0  0  0  0  0  0  0
   -3.8452   -1.9811   -0.3896 H   0  0  0  0  0  0  0  0  0  0  0  0
   -3.6069   -1.4423   -2.1168 H   0  0  0  0  0  0  0  0  0  0  0  0
  1  2  1  0
  1 11  1  0
  1 12  1  0
  1 13  1  0
  2  3  1  0
  2 14  1  0
  3  4  2  0
  3  5  1  0
  5  6  2  3
  5  7  1  0
  6 15  1  0
  6 16  1  0
  7  8  1  0
  7 17  1  0
  8  9  1  0
  8 10  2  0
  9 18  1  0
  9 19  1  0
  9 20  1  0
M  END

> <RosettaParamsInstructions>
M  ROOT 7
M  POLY_N_BB 7
M  POLY_CA_BB 5
M  POLY_C_BB 3
M  POLY_O_BB 4
M  POLY_IGNORE 1 10 9 14 11 12 13 18 19 20
M  POLY_UPPER 2
M  POLY_LOWER 8
M  POLY_CHG 0
M  POLY_PROPERTIES PROTEIN POLYMER ALPHA_AA ALIPHATIC
M  END

$$$$
DHA_new
     RDKit          3D

 20 19  0  0  0  0  0  0  0  0999 V2000
    2.6528   -1.1202    2.5913 C   0  0  0  0  0  0  0  0  0  0  0  0
    1.7190   -0.2174    1.8825 N   0  0  0  0  0  0  0  0  0  0  0  0
    0.5648   -0.7964    1.3139 C   0  0  0  0  0  0  0  0  0  0  0  0
    0.3840   -2.0578    1.4373 O   0  0  0  0  0  0  0  0  0  0  0  0
   -0.4593   -0.0340    0.5780 C   0  0  0  0  0  0  0  0  0  0  0  0
   -0.3226    1.2709    0.4210 C   0  0  0  0  0  0  0  0  0  0  0  0
   -1.5597   -0.7627    0.0679 N   0  0  0  0  0  0  0  0  0  0  0  0
   -2.6500   -0.2507   -0.6615 C   0  0  0  0  0  0  0  0  0  0  0  0
   -3.7498   -1.1654   -1.1375 C   0  0  0  0  0  0  0  0  0  0  0  0
   -2.8100    0.9506   -0.9728 O   0  0  0  0  0  0  0  0  0  0  0  0
    2.1321   -2.0007    2.9750 H   0  0  0  0  0  0  0  0  0  0  0  0
    3.1052   -0.5046    3.4047 H   0  0  0  0  0  0  0  0  0  0  0  0
    3.4127   -1.3889    1.8275 H   0  0  0  0  0  0  0  0  0  0  0  0
    1.9266    0.7901    1.8208 H   0  0  0  0  0  0  0  0  0  0  0  0
   -1.0015    1.9231   -0.0934 H   0  0  0  0  0  0  0  0  0  0  0  0
    0.5498    1.7445    0.8441 H   0  0  0  0  0  0  0  0  0  0  0  0
   -1.5778   -1.8071    0.2467 H   0  0  0  0  0  0  0  0  0  0  0  0
   -3.2679   -2.1570   -1.2691 H   0  0  0  0  0  0  0  0  0  0  0  0
   -4.0932   -0.8413   -2.1222 H   0  0  0  0  0  0  0  0  0  0  0  0
   -4.5616   -1.2272   -0.4132 H   0  0  0  0  0  0  0  0  0  0  0  0
  1  2  1  0
  1 11  1  0
  1 12  1  0
  1 13  1  0
  2  3  1  0
  2 14  1  0
  3  4  2  0
  3  5  1  0
  5  6  2  3
  5  7  1  0
  6 15  1  0
  6 16  1  0
  7  8  1  0
  7 17  1  0
  8  9  1  0
  8 10  2  0
  9 18  1  0
  9 19  1  0
  9 20  1  0
M  END

> <RosettaParamsInstructions>
M  ROOT 7
M  POLY_N_BB 7
M  POLY_CA_BB 5
M  POLY_C_BB 3
M  POLY_O_BB 4
M  POLY_IGNORE 1 10 9 14 11 12 13 18 19 20
M  POLY_UPPER 2
M  POLY_LOWER 8
M  POLY_CHG 0
M  POLY_PROPERTIES PROTEIN POLYMER ALPHA_AA ALIPHATIC
M  END

$$$$
DHA_new
     RDKit          3D

 20 19  0  0  0  0  0  0  0  0999 V2000
    2.6562   -1.0713    2.5673 C   0  0  0  0  0  0  0  0  0  0  0  0
    1.6975   -0.2143    1.8639 N   0  0  0  0  0  0  0  0  0  0  0  0
    0.5525   -0.8136    1.2981 C   0  0  0  0  0  0  0  0  0  0  0  0
    0.3910   -2.0533    1.4133 O   0  0  0  0  0  0  0  0  0  0  0  0
   -0.4773   -0.0620    0.5711 C   0  0  0  0  0  0  0  0  0  0  0  0
   -0.3215    1.2209    0.4452 C   0  0  0  0  0  0  0  0  0  0  0  0
   -1.5704   -0.7636    0.0528 N   0  0  0  0  0  0  0  0  0  0  0  0
   -2.6247   -0.2297   -0.6517 C   0  0  0  0  0  0  0  0  0  0  0  0
   -3.7261   -1.1577   -1.1366 C   0  0  0  0  0  0  0  0  0  0  0  0
   -2.7877    0.9524   -0.9463 O   0  0  0  0  0  0  0  0  0  0  0  0
    3.1023   -0.4808    3.4099 H   0  0  0  0  0  0  0  0  0  0  0  0
    2.1106   -1.9300    2.9609 H   0  0  0  0  0  0  0  0  0  0  0  0
    3.4264   -1.4308    1.8676 H   0  0  0  0  0  0  0  0  0  0  0  0
    1.9324    0.7984    1.8298 H   0  0  0  0  0  0  0  0  0  0  0  0
    0.5370    1.7682    0.8530 H   0  0  0  0  0  0  0  0  0  0  0  0
   -1.0294    1.8296   -0.0700 H   0  0  0  0  0  0  0  0  0  0  0  0
   -1.5857   -1.8163    0.2217 H   0  0  0  0  0  0  0  0  0  0  0  0
   -4.0964   -0.8126   -2.1352 H   0  0  0  0  0  0  0  0  0  0  0  0
   -4.5101   -1.2231   -0.3803 H   0  0  0  0  0  0  0  0  0  0  0  0
   -3.2830   -2.1626   -1.2936 H   0  0  0  0  0  0  0  0  0  0  0  0
  1  2  1  0
  1 11  1  0
  1 12  1  0
  1 13  1  0
  2  3  1  0
  2 14  1  0
  3  4  2  0
  3  5  1  0
  5  6  2  3
  5  7  1  0
  6 15  1  0
  6 16  1  0
  7  8  1  0
  7 17  1  0
  8  9  1  0
  8 10  2  0
  9 18  1  0
  9 19  1  0
  9 20  1  0
M  END

> <RosettaParamsInstructions>
M  ROOT 7
M  POLY_N_BB 7
M  POLY_CA_BB 5
M  POLY_C_BB 3
M  POLY_O_BB 4
M  POLY_IGNORE 1 10 9 14 11 12 13 18 19 20
M  POLY_UPPER 2
M  POLY_LOWER 8
M  POLY_CHG 0
M  POLY_PROPERTIES PROTEIN POLYMER ALPHA_AA ALIPHATIC
M  END

$$$$
DHA_new
     RDKit          3D

 20 19  0  0  0  0  0  0  0  0999 V2000
    2.6193   -1.0761    2.6500 C   0  0  0  0  0  0  0  0  0  0  0  0
    1.6956   -0.2188    1.8693 N   0  0  0  0  0  0  0  0  0  0  0  0
    0.5560   -0.8059    1.3403 C   0  0  0  0  0  0  0  0  0  0  0  0
    0.3469   -2.0416    1.5409 O   0  0  0  0  0  0  0  0  0  0  0  0
   -0.4408   -0.0731    0.5486 C   0  0  0  0  0  0  0  0  0  0  0  0
   -0.2519    1.2015    0.3256 C   0  0  0  0  0  0  0  0  0  0  0  0
   -1.5701   -0.7690    0.0545 N   0  0  0  0  0  0  0  0  0  0  0  0
   -2.6101   -0.2345   -0.7108 C   0  0  0  0  0  0  0  0  0  0  0  0
   -3.7119   -1.1755   -1.1237 C   0  0  0  0  0  0  0  0  0  0  0  0
   -2.6914    0.9469   -1.0713 O   0  0  0  0  0  0  0  0  0  0  0  0
    2.6067   -2.0719    2.1692 H   0  0  0  0  0  0  0  0  0  0  0  0
    3.6175   -0.5978    2.6440 H   0  0  0  0  0  0  0  0  0  0  0  0
    2.1745   -1.0934    3.6792 H   0  0  0  0  0  0  0  0  0  0  0  0
    1.9327    0.7842    1.7470 H   0  0  0  0  0  0  0  0  0  0  0  0
    0.6317    1.7373    0.7146 H   0  0  0  0  0  0  0  0  0  0  0  0
   -0.9250    1.8124   -0.2396 H   0  0  0  0  0  0  0  0  0  0  0  0
   -1.6098   -1.8267    0.3098 H   0  0  0  0  0  0  0  0  0  0  0  0
   -3.4046   -1.6576   -2.0668 H   0  0  0  0  0  0  0  0  0  0  0  0
   -3.9245   -1.9158   -0.3440 H   0  0  0  0  0  0  0  0  0  0  0  0
   -4.6473   -0.5769   -1.2959 H   0  0  0  0  0  0  0  0  0  0  0  0
  1  2  1  0
  1 11  1  0
  1 12  1  0
  1 13  1  0
  2  3  1  0
  2 14  1  0
  3  4  2  0
  3  5  1  0
  5  6  2  3
  5  7  1  0
  6 15  1  0
  6 16  1  0
  7  8  1  0
  7 17  1  0
  8  9  1  0
  8 10  2  0
  9 18  1  0
  9 19  1  0
  9 20  1  0
M  END

> <RosettaParamsInstructions>
M  ROOT 7
M  POLY_N_BB 7
M  POLY_CA_BB 5
M  POLY_C_BB 3
M  POLY_O_BB 4
M  POLY_IGNORE 1 10 9 14 11 12 13 18 19 20
M  POLY_UPPER 2
M  POLY_LOWER 8
M  POLY_CHG 0
M  POLY_PROPERTIES PROTEIN POLYMER ALPHA_AA ALIPHATIC
M  END

$$$$
DHA_new
     RDKit          3D

 20 19  0  0  0  0  0  0  0  0999 V2000
    2.6233   -1.0188    2.6572 C   0  0  0  0  0  0  0  0  0  0  0  0
    1.7083   -0.2329    1.8215 N   0  0  0  0  0  0  0  0  0  0  0  0
    0.5316   -0.8131    1.3497 C   0  0  0  0  0  0  0  0  0  0  0  0
    0.2572   -2.0286    1.6491 O   0  0  0  0  0  0  0  0  0  0  0  0
   -0.4151   -0.0908    0.5194 C   0  0  0  0  0  0  0  0  0  0  0  0
   -0.1631    1.1482    0.1980 C   0  0  0  0  0  0  0  0  0  0  0  0
   -1.5865   -0.7711    0.0886 N   0  0  0  0  0  0  0  0  0  0  0  0
   -2.6100   -0.2580   -0.7075 C   0  0  0  0  0  0  0  0  0  0  0  0
   -3.7915   -1.1255   -1.0734 C   0  0  0  0  0  0  0  0  0  0  0  0
   -2.6462    0.8907   -1.1642 O   0  0  0  0  0  0  0  0  0  0  0  0
    3.3730   -1.5334    2.0450 H   0  0  0  0  0  0  0  0  0  0  0  0
    2.0100   -1.7875    3.1685 H   0  0  0  0  0  0  0  0  0  0  0  0
    3.0692   -0.3680    3.4406 H   0  0  0  0  0  0  0  0  0  0  0  0
    1.9882    0.7203    1.6248 H   0  0  0  0  0  0  0  0  0  0  0  0
   -0.8120    1.7582   -0.4146 H   0  0  0  0  0  0  0  0  0  0  0  0
    0.7443    1.6489    0.5417 H   0  0  0  0  0  0  0  0  0  0  0  0
   -1.6876   -1.7978    0.4182 H   0  0  0  0  0  0  0  0  0  0  0  0
   -3.6437   -1.4518   -2.1160 H   0  0  0  0  0  0  0  0  0  0  0  0
   -3.8189   -1.9784   -0.3500 H   0  0  0  0  0  0  0  0  0  0  0  0
   -4.7369   -0.5628   -0.9557 H   0  0  0  0  0  0  0  0  0  0  0  0
  1  2  1  0
  1 11  1  0
  1 12  1  0
  1 13  1  0
  2  3  1  0
  2 14  1  0
  3  4  2  0
  3  5  1  0
  5  6  2  3
  5  7  1  0
  6 15  1  0
  6 16  1  0
  7  8  1  0
  7 17  1  0
  8  9  1  0
  8 10  2  0
  9 18  1  0
  9 19  1  0
  9 20  1  0
M  END

> <RosettaParamsInstructions>
M  ROOT 7
M  POLY_N_BB 7
M  POLY_CA_BB 5
M  POLY_C_BB 3
M  POLY_O_BB 4
M  POLY_IGNORE 1 10 9 14 11 12 13 18 19 20
M  POLY_UPPER 2
M  POLY_LOWER 8
M  POLY_CHG 0
M  POLY_PROPERTIES PROTEIN POLYMER ALPHA_AA ALIPHATIC
M  END

$$$$
DHA_new
     RDKit          3D

 20 19  0  0  0  0  0  0  0  0999 V2000
    2.7119   -1.0639    2.5328 C   0  0  0  0  0  0  0  0  0  0  0  0
    1.7108   -0.2237    1.8715 N   0  0  0  0  0  0  0  0  0  0  0  0
    0.5836   -0.7912    1.2793 C   0  0  0  0  0  0  0  0  0  0  0  0
    0.4732   -2.0668    1.3442 O   0  0  0  0  0  0  0  0  0  0  0  0
   -0.4687   -0.0456    0.5981 C   0  0  0  0  0  0  0  0  0  0  0  0
   -0.3579    1.2611    0.5304 C   0  0  0  0  0  0  0  0  0  0  0  0
   -1.5505   -0.7511    0.0461 N   0  0  0  0  0  0  0  0  0  0  0  0
   -2.6612   -0.2643   -0.6427 C   0  0  0  0  0  0  0  0  0  0  0  0
   -3.7375   -1.1579   -1.1727 C   0  0  0  0  0  0  0  0  0  0  0  0
   -2.8599    0.9479   -0.8793 O   0  0  0  0  0  0  0  0  0  0  0  0
    2.1285   -1.7638    3.1807 H   0  0  0  0  0  0  0  0  0  0  0  0
    3.3684   -0.4719    3.1997 H   0  0  0  0  0  0  0  0  0  0  0  0
    3.2752   -1.6519    1.7866 H   0  0  0  0  0  0  0  0  0  0  0  0
    1.9000    0.7927    1.8781 H   0  0  0  0  0  0  0  0  0  0  0  0
   -1.1098    1.8955    0.0333 H   0  0  0  0  0  0  0  0  0  0  0  0
    0.5053    1.7477    0.9786 H   0  0  0  0  0  0  0  0  0  0  0  0
   -1.5059   -1.8164    0.1790 H   0  0  0  0  0  0  0  0  0  0  0  0
   -3.5078   -2.2266   -0.9675 H   0  0  0  0  0  0  0  0  0  0  0  0
   -4.7186   -0.9406   -0.7615 H   0  0  0  0  0  0  0  0  0  0  0  0
   -3.7855   -1.0614   -2.2740 H   0  0  0  0  0  0  0  0  0  0  0  0
  1  2  1  0
  1 11  1  0
  1 12  1  0
  1 13  1  0
  2  3  1  0
  2 14  1  0
  3  4  2  0
  3  5  1  0
  5  6  2  3
  5  7  1  0
  6 15  1  0
  6 16  1  0
  7  8  1  0
  7 17  1  0
  8  9  1  0
  8 10  2  0
  9 18  1  0
  9 19  1  0
  9 20  1  0
M  END

> <RosettaParamsInstructions>
M  ROOT 7
M  POLY_N_BB 7
M  POLY_CA_BB 5
M  POLY_C_BB 3
M  POLY_O_BB 4
M  POLY_IGNORE 1 10 9 14 11 12 13 18 19 20
M  POLY_UPPER 2
M  POLY_LOWER 8
M  POLY_CHG 0
M  POLY_PROPERTIES PROTEIN POLYMER ALPHA_AA ALIPHATIC
M  END

$$$$
DHA_new
     RDKit          3D

 20 19  0  0  0  0  0  0  0  0999 V2000
    2.7000   -1.0986    2.4940 C   0  0  0  0  0  0  0  0  0  0  0  0
    1.6905   -0.2577    1.8213 N   0  0  0  0  0  0  0  0  0  0  0  0
    0.5458   -0.8234    1.2541 C   0  0  0  0  0  0  0  0  0  0  0  0
    0.4070   -2.0672    1.3367 O   0  0  0  0  0  0  0  0  0  0  0  0
   -0.4753   -0.0425    0.5826 C   0  0  0  0  0  0  0  0  0  0  0  0
   -0.3368    1.2599    0.4922 C   0  0  0  0  0  0  0  0  0  0  0  0
   -1.5752   -0.7409    0.0576 N   0  0  0  0  0  0  0  0  0  0  0  0
   -2.6692   -0.2025   -0.6234 C   0  0  0  0  0  0  0  0  0  0  0  0
   -3.7224   -1.1901   -1.0850 C   0  0  0  0  0  0  0  0  0  0  0  0
   -2.8213    0.9999   -0.8633 O   0  0  0  0  0  0  0  0  0  0  0  0
    2.3750   -2.1529    2.4085 H   0  0  0  0  0  0  0  0  0  0  0  0
    2.7238   -0.8171    3.5490 H   0  0  0  0  0  0  0  0  0  0  0  0
    3.6470   -0.8943    1.9790 H   0  0  0  0  0  0  0  0  0  0  0  0
    1.8733    0.7536    1.7932 H   0  0  0  0  0  0  0  0  0  0  0  0
   -1.0745    1.8631    0.0020 H   0  0  0  0  0  0  0  0  0  0  0  0
    0.5428    1.7467    0.9213 H   0  0  0  0  0  0  0  0  0  0  0  0
   -1.5511   -1.7988    0.2074 H   0  0  0  0  0  0  0  0  0  0  0  0
   -4.4254   -1.3321   -0.2612 H   0  0  0  0  0  0  0  0  0  0  0  0
   -4.2520   -0.7272   -1.9574 H   0  0  0  0  0  0  0  0  0  0  0  0
   -3.2084   -2.1302   -1.3678 H   0  0  0  0  0  0  0  0  0  0  0  0
  1  2  1  0
  1 11  1  0
  1 12  1  0
  1 13  1  0
  2  3  1  0
  2 14  1  0
  3  4  2  0
  3  5  1  0
  5  6  2  3
  5  7  1  0
  6 15  1  0
  6 16  1  0
  7  8  1  0
  7 17  1  0
  8  9  1  0
  8 10  2  0
  9 18  1  0
  9 19  1  0
  9 20  1  0
M  END

> <RosettaParamsInstructions>
M  ROOT 7
M  POLY_N_BB 7
M  POLY_CA_BB 5
M  POLY_C_BB 3
M  POLY_O_BB 4
M  POLY_IGNORE 1 10 9 14 11 12 13 18 19 20
M  POLY_UPPER 2
M  POLY_LOWER 8
M  POLY_CHG 0
M  POLY_PROPERTIES PROTEIN POLYMER ALPHA_AA ALIPHATIC
M  END

$$$$
DHA_new
     RDKit          3D

 20 19  0  0  0  0  0  0  0  0999 V2000
    2.6803   -1.0379    2.5630 C   0  0  0  0  0  0  0  0  0  0  0  0
    1.6981   -0.1918    1.8518 N   0  0  0  0  0  0  0  0  0  0  0  0
    0.5860   -0.8285    1.3052 C   0  0  0  0  0  0  0  0  0  0  0  0
    0.4337   -2.1054    1.4234 O   0  0  0  0  0  0  0  0  0  0  0  0
   -0.4399   -0.0754    0.5834 C   0  0  0  0  0  0  0  0  0  0  0  0
   -0.2853    1.2168    0.4640 C   0  0  0  0  0  0  0  0  0  0  0  0
   -1.5646   -0.7759    0.0399 N   0  0  0  0  0  0  0  0  0  0  0  0
   -2.6455   -0.2755   -0.6730 C   0  0  0  0  0  0  0  0  0  0  0  0
   -3.7598   -1.1340   -1.1848 C   0  0  0  0  0  0  0  0  0  0  0  0
   -2.7970    0.9356   -0.9582 O   0  0  0  0  0  0  0  0  0  0  0  0
    2.2522   -1.2477    3.5693 H   0  0  0  0  0  0  0  0  0  0  0  0
    2.7306   -2.0162    2.0334 H   0  0  0  0  0  0  0  0  0  0  0  0
    3.6393   -0.5264    2.6537 H   0  0  0  0  0  0  0  0  0  0  0  0
    1.9034    0.8067    1.8098 H   0  0  0  0  0  0  0  0  0  0  0  0
    0.5721    1.7048    0.8859 H   0  0  0  0  0  0  0  0  0  0  0  0
   -1.0029    1.8567   -0.0592 H   0  0  0  0  0  0  0  0  0  0  0  0
   -1.5442   -1.8338    0.2236 H   0  0  0  0  0  0  0  0  0  0  0  0
   -3.3814   -2.1779   -1.2569 H   0  0  0  0  0  0  0  0  0  0  0  0
   -4.1463   -0.8127   -2.1434 H   0  0  0  0  0  0  0  0  0  0  0  0
   -4.5354   -1.1335   -0.3899 H   0  0  0  0  0  0  0  0  0  0  0  0
  1  2  1  0
  1 11  1  0
  1 12  1  0
  1 13  1  0
  2  3  1  0
  2 14  1  0
  3  4  2  0
  3  5  1  0
  5  6  2  3
  5  7  1  0
  6 15  1  0
  6 16  1  0
  7  8  1  0
  7 17  1  0
  8  9  1  0
  8 10  2  0
  9 18  1  0
  9 19  1  0
  9 20  1  0
M  END

> <RosettaParamsInstructions>
M  ROOT 7
M  POLY_N_BB 7
M  POLY_CA_BB 5
M  POLY_C_BB 3
M  POLY_O_BB 4
M  POLY_IGNORE 1 10 9 14 11 12 13 18 19 20
M  POLY_UPPER 2
M  POLY_LOWER 8
M  POLY_CHG 0
M  POLY_PROPERTIES PROTEIN POLYMER ALPHA_AA ALIPHATIC
M  END

$$$$
DHA_new
     RDKit          3D

 20 19  0  0  0  0  0  0  0  0999 V2000
    2.6964   -1.0544    2.5410 C   0  0  0  0  0  0  0  0  0  0  0  0
    1.6770   -0.2305    1.8666 N   0  0  0  0  0  0  0  0  0  0  0  0
    0.5515   -0.8369    1.2786 C   0  0  0  0  0  0  0  0  0  0  0  0
    0.4312   -2.0998    1.3394 O   0  0  0  0  0  0  0  0  0  0  0  0
   -0.4862   -0.0568    0.5982 C   0  0  0  0  0  0  0  0  0  0  0  0
   -0.3704    1.2403    0.5312 C   0  0  0  0  0  0  0  0  0  0  0  0
   -1.5549   -0.7869    0.0557 N   0  0  0  0  0  0  0  0  0  0  0  0
   -2.6487   -0.2518   -0.6318 C   0  0  0  0  0  0  0  0  0  0  0  0
   -3.7341   -1.1654   -1.1649 C   0  0  0  0  0  0  0  0  0  0  0  0
   -2.7896    0.9511   -0.8374 O   0  0  0  0  0  0  0  0  0  0  0  0
    2.7880   -0.7864    3.5994 H   0  0  0  0  0  0  0  0  0  0  0  0
    2.3942   -2.1129    2.4437 H   0  0  0  0  0  0  0  0  0  0  0  0
    3.6540   -0.9028    1.9717 H   0  0  0  0  0  0  0  0  0  0  0  0
    1.8765    0.7753    1.8781 H   0  0  0  0  0  0  0  0  0  0  0  0
    0.4961    1.7716    0.9773 H   0  0  0  0  0  0  0  0  0  0  0  0
   -1.0865    1.8898    0.0502 H   0  0  0  0  0  0  0  0  0  0  0  0
   -1.5820   -1.8550    0.1503 H   0  0  0  0  0  0  0  0  0  0  0  0
   -4.6981   -0.9574   -0.6980 H   0  0  0  0  0  0  0  0  0  0  0  0
   -3.7522   -0.9730   -2.2574 H   0  0  0  0  0  0  0  0  0  0  0  0
   -3.4688   -2.2103   -0.9509 H   0  0  0  0  0  0  0  0  0  0  0  0
  1  2  1  0
  1 11  1  0
  1 12  1  0
  1 13  1  0
  2  3  1  0
  2 14  1  0
  3  4  2  0
  3  5  1  0
  5  6  2  3
  5  7  1  0
  6 15  1  0
  6 16  1  0
  7  8  1  0
  7 17  1  0
  8  9  1  0
  8 10  2  0
  9 18  1  0
  9 19  1  0
  9 20  1  0
M  END

> <RosettaParamsInstructions>
M  ROOT 7
M  POLY_N_BB 7
M  POLY_CA_BB 5
M  POLY_C_BB 3
M  POLY_O_BB 4
M  POLY_IGNORE 1 10 9 14 11 12 13 18 19 20
M  POLY_UPPER 2
M  POLY_LOWER 8
M  POLY_CHG 0
M  POLY_PROPERTIES PROTEIN POLYMER ALPHA_AA ALIPHATIC
M  END

$$$$
DHA_new
     RDKit          3D

 20 19  0  0  0  0  0  0  0  0999 V2000
    2.6443   -1.0274    2.6850 C   0  0  0  0  0  0  0  0  0  0  0  0
    1.6906   -0.2674    1.8830 N   0  0  0  0  0  0  0  0  0  0  0  0
    0.5263   -0.8292    1.3486 C   0  0  0  0  0  0  0  0  0  0  0  0
    0.2995   -2.0419    1.5739 O   0  0  0  0  0  0  0  0  0  0  0  0
   -0.4690   -0.1069    0.5327 C   0  0  0  0  0  0  0  0  0  0  0  0
   -0.2579    1.1461    0.2858 C   0  0  0  0  0  0  0  0  0  0  0  0
   -1.5967   -0.7797    0.0536 N   0  0  0  0  0  0  0  0  0  0  0  0
   -2.6151   -0.2584   -0.7163 C   0  0  0  0  0  0  0  0  0  0  0  0
   -3.7817   -1.1401   -1.1565 C   0  0  0  0  0  0  0  0  0  0  0  0
   -2.6662    0.9161   -1.0978 O   0  0  0  0  0  0  0  0  0  0  0  0
    2.1976   -1.9654    3.0717 H   0  0  0  0  0  0  0  0  0  0  0  0
    2.9774   -0.4007    3.5210 H   0  0  0  0  0  0  0  0  0  0  0  0
    3.5147   -1.2531    2.0430 H   0  0  0  0  0  0  0  0  0  0  0  0
    1.9379    0.7163    1.7384 H   0  0  0  0  0  0  0  0  0  0  0  0
    0.6249    1.6342    0.6725 H   0  0  0  0  0  0  0  0  0  0  0  0
   -0.9054    1.7627   -0.2888 H   0  0  0  0  0  0  0  0  0  0  0  0
   -1.6718   -1.8201    0.3189 H   0  0  0  0  0  0  0  0  0  0  0  0
   -3.5415   -1.3966   -2.2066 H   0  0  0  0  0  0  0  0  0  0  0  0
   -3.8054   -1.9918   -0.4762 H   0  0  0  0  0  0  0  0  0  0  0  0
   -4.7088   -0.5491   -1.0451 H   0  0  0  0  0  0  0  0  0  0  0  0
  1  2  1  0
  1 11  1  0
  1 12  1  0
  1 13  1  0
  2  3  1  0
  2 14  1  0
  3  4  2  0
  3  5  1  0
  5  6  2  3
  5  7  1  0
  6 15  1  0
  6 16  1  0
  7  8  1  0
  7 17  1  0
  8  9  1  0
  8 10  2  0
  9 18  1  0
  9 19  1  0
  9 20  1  0
M  END

> <RosettaParamsInstructions>
M  ROOT 7
M  POLY_N_BB 7
M  POLY_CA_BB 5
M  POLY_C_BB 3
M  POLY_O_BB 4
M  POLY_IGNORE 1 10 9 14 11 12 13 18 19 20
M  POLY_UPPER 2
M  POLY_LOWER 8
M  POLY_CHG 0
M  POLY_PROPERTIES PROTEIN POLYMER ALPHA_AA ALIPHATIC
M  END

$$$$
DHA_new
     RDKit          3D

 20 19  0  0  0  0  0  0  0  0999 V2000
    2.6802   -1.0462    2.6117 C   0  0  0  0  0  0  0  0  0  0  0  0
    1.6897   -0.2718    1.8438 N   0  0  0  0  0  0  0  0  0  0  0  0
    0.5379   -0.8740    1.3298 C   0  0  0  0  0  0  0  0  0  0  0  0
    0.3007   -2.1193    1.5067 O   0  0  0  0  0  0  0  0  0  0  0  0
   -0.4487   -0.1062    0.5658 C   0  0  0  0  0  0  0  0  0  0  0  0
   -0.2789    1.1767    0.3405 C   0  0  0  0  0  0  0  0  0  0  0  0
   -1.6063   -0.7583    0.0611 N   0  0  0  0  0  0  0  0  0  0  0  0
   -2.6467   -0.2164   -0.6770 C   0  0  0  0  0  0  0  0  0  0  0  0
   -3.7855   -1.1202   -1.1074 C   0  0  0  0  0  0  0  0  0  0  0  0
   -2.7303    0.9592   -1.0218 O   0  0  0  0  0  0  0  0  0  0  0  0
    2.5485   -2.0922    2.3284 H   0  0  0  0  0  0  0  0  0  0  0  0
    2.5905   -0.8514    3.6939 H   0  0  0  0  0  0  0  0  0  0  0  0
    3.6780   -0.7115    2.3017 H   0  0  0  0  0  0  0  0  0  0  0  0
    1.9103    0.7226    1.7205 H   0  0  0  0  0  0  0  0  0  0  0  0
   -0.9295    1.8340   -0.2014 H   0  0  0  0  0  0  0  0  0  0  0  0
    0.6115    1.6776    0.7289 H   0  0  0  0  0  0  0  0  0  0  0  0
   -1.6496   -1.7959    0.2977 H   0  0  0  0  0  0  0  0  0  0  0  0
   -4.3297   -0.6935   -1.9635 H   0  0  0  0  0  0  0  0  0  0  0  0
   -4.4145   -1.2602   -0.2143 H   0  0  0  0  0  0  0  0  0  0  0  0
   -3.3342   -2.1053   -1.4041 H   0  0  0  0  0  0  0  0  0  0  0  0
  1  2  1  0
  1 11  1  0
  1 12  1  0
  1 13  1  0
  2  3  1  0
  2 14  1  0
  3  4  2  0
  3  5  1  0
  5  6  2  3
  5  7  1  0
  6 15  1  0
  6 16  1  0
  7  8  1  0
  7 17  1  0
  8  9  1  0
  8 10  2  0
  9 18  1  0
  9 19  1  0
  9 20  1  0
M  END

> <RosettaParamsInstructions>
M  ROOT 7
M  POLY_N_BB 7
M  POLY_CA_BB 5
M  POLY_C_BB 3
M  POLY_O_BB 4
M  POLY_IGNORE 1 10 9 14 11 12 13 18 19 20
M  POLY_UPPER 2
M  POLY_LOWER 8
M  POLY_CHG 0
M  POLY_PROPERTIES PROTEIN POLYMER ALPHA_AA ALIPHATIC
M  END

$$$$
DHA_new
     RDKit          3D

 20 19  0  0  0  0  0  0  0  0999 V2000
    2.6537   -1.0847    2.5630 C   0  0  0  0  0  0  0  0  0  0  0  0
    1.7052   -0.2026    1.8636 N   0  0  0  0  0  0  0  0  0  0  0  0
    0.5687   -0.7908    1.2925 C   0  0  0  0  0  0  0  0  0  0  0  0
    0.4208   -2.0572    1.4112 O   0  0  0  0  0  0  0  0  0  0  0  0
   -0.4624   -0.0406    0.5660 C   0  0  0  0  0  0  0  0  0  0  0  0
   -0.3206    1.2544    0.4390 C   0  0  0  0  0  0  0  0  0  0  0  0
   -1.5588   -0.7691    0.0412 N   0  0  0  0  0  0  0  0  0  0  0  0
   -2.6507   -0.2795   -0.6787 C   0  0  0  0  0  0  0  0  0  0  0  0
   -3.7507   -1.1932   -1.1756 C   0  0  0  0  0  0  0  0  0  0  0  0
   -2.7622    0.9347   -0.9411 O   0  0  0  0  0  0  0  0  0  0  0  0
    2.6409   -2.1093    2.1200 H   0  0  0  0  0  0  0  0  0  0  0  0
    3.6722   -0.6471    2.5302 H   0  0  0  0  0  0  0  0  0  0  0  0
    2.3734   -1.1509    3.6282 H   0  0  0  0  0  0  0  0  0  0  0  0
    1.9097    0.8019    1.8205 H   0  0  0  0  0  0  0  0  0  0  0  0
    0.5430    1.7390    0.8668 H   0  0  0  0  0  0  0  0  0  0  0  0
   -0.9966    1.9317   -0.0674 H   0  0  0  0  0  0  0  0  0  0  0  0
   -1.5703   -1.8246    0.2057 H   0  0  0  0  0  0  0  0  0  0  0  0
   -3.5552   -2.1862   -0.7455 H   0  0  0  0  0  0  0  0  0  0  0  0
   -3.7873   -1.1779   -2.2818 H   0  0  0  0  0  0  0  0  0  0  0  0
   -4.6793   -0.8003   -0.7170 H   0  0  0  0  0  0  0  0  0  0  0  0
  1  2  1  0
  1 11  1  0
  1 12  1  0
  1 13  1  0
  2  3  1  0
  2 14  1  0
  3  4  2  0
  3  5  1  0
  5  6  2  3
  5  7  1  0
  6 15  1  0
  6 16  1  0
  7  8  1  0
  7 17  1  0
  8  9  1  0
  8 10  2  0
  9 18  1  0
  9 19  1  0
  9 20  1  0
M  END

> <RosettaParamsInstructions>
M  ROOT 7
M  POLY_N_BB 7
M  POLY_CA_BB 5
M  POLY_C_BB 3
M  POLY_O_BB 4
M  POLY_IGNORE 1 10 9 14 11 12 13 18 19 20
M  POLY_UPPER 2
M  POLY_LOWER 8
M  POLY_CHG 0
M  POLY_PROPERTIES PROTEIN POLYMER ALPHA_AA ALIPHATIC
M  END

$$$$
DHA_new
     RDKit          3D

 20 19  0  0  0  0  0  0  0  0999 V2000
    2.7272   -1.0707    2.5337 C   0  0  0  0  0  0  0  0  0  0  0  0
    1.6883   -0.2540    1.9067 N   0  0  0  0  0  0  0  0  0  0  0  0
    0.5745   -0.8205    1.2604 C   0  0  0  0  0  0  0  0  0  0  0  0
    0.5335   -2.1011    1.2592 O   0  0  0  0  0  0  0  0  0  0  0  0
   -0.5035   -0.0612    0.6115 C   0  0  0  0  0  0  0  0  0  0  0  0
   -0.4606    1.2331    0.6135 C   0  0  0  0  0  0  0  0  0  0  0  0
   -1.5302   -0.8014    0.0196 N   0  0  0  0  0  0  0  0  0  0  0  0
   -2.6263   -0.2524   -0.6363 C   0  0  0  0  0  0  0  0  0  0  0  0
   -3.6898   -1.1609   -1.2468 C   0  0  0  0  0  0  0  0  0  0  0  0
   -2.8803    0.9618   -0.8078 O   0  0  0  0  0  0  0  0  0  0  0  0
    3.3187   -0.4604    3.2444 H   0  0  0  0  0  0  0  0  0  0  0  0
    3.3823   -1.4455    1.7380 H   0  0  0  0  0  0  0  0  0  0  0  0
    2.2095   -1.8732    3.1031 H   0  0  0  0  0  0  0  0  0  0  0  0
    1.7973    0.7736    1.9525 H   0  0  0  0  0  0  0  0  0  0  0  0
   -1.1919    1.8798    0.1709 H   0  0  0  0  0  0  0  0  0  0  0  0
    0.3662    1.7701    1.0912 H   0  0  0  0  0  0  0  0  0  0  0  0
   -1.5150   -1.8788    0.0479 H   0  0  0  0  0  0  0  0  0  0  0  0
   -3.5296   -2.1976   -0.9376 H   0  0  0  0  0  0  0  0  0  0  0  0
   -4.6457   -0.7941   -0.8329 H   0  0  0  0  0  0  0  0  0  0  0  0
   -3.6311   -1.0986   -2.3504 H   0  0  0  0  0  0  0  0  0  0  0  0
  1  2  1  0
  1 11  1  0
  1 12  1  0
  1 13  1  0
  2  3  1  0
  2 14  1  0
  3  4  2  0
  3  5  1  0
  5  6  2  3
  5  7  1  0
  6 15  1  0
  6 16  1  0
  7  8  1  0
  7 17  1  0
  8  9  1  0
  8 10  2  0
  9 18  1  0
  9 19  1  0
  9 20  1  0
M  END

> <RosettaParamsInstructions>
M  ROOT 7
M  POLY_N_BB 7
M  POLY_CA_BB 5
M  POLY_C_BB 3
M  POLY_O_BB 4
M  POLY_IGNORE 1 10 9 14 11 12 13 18 19 20
M  POLY_UPPER 2
M  POLY_LOWER 8
M  POLY_CHG 0
M  POLY_PROPERTIES PROTEIN POLYMER ALPHA_AA ALIPHATIC
M  END

$$$$
DHA_new
     RDKit          3D

 20 19  0  0  0  0  0  0  0  0999 V2000
    2.7108   -1.0554    2.5300 C   0  0  0  0  0  0  0  0  0  0  0  0
    1.6911   -0.2275    1.8682 N   0  0  0  0  0  0  0  0  0  0  0  0
    0.5670   -0.8332    1.2775 C   0  0  0  0  0  0  0  0  0  0  0  0
    0.4177   -2.0978    1.3073 O   0  0  0  0  0  0  0  0  0  0  0  0
   -0.4591   -0.0503    0.6161 C   0  0  0  0  0  0  0  0  0  0  0  0
   -0.3834    1.2509    0.5407 C   0  0  0  0  0  0  0  0  0  0  0  0
   -1.5544   -0.7681    0.0522 N   0  0  0  0  0  0  0  0  0  0  0  0
   -2.6478   -0.2542   -0.6233 C   0  0  0  0  0  0  0  0  0  0  0  0
   -3.7128   -1.1907   -1.1499 C   0  0  0  0  0  0  0  0  0  0  0  0
   -2.8496    0.9505   -0.8494 O   0  0  0  0  0  0  0  0  0  0  0  0
    2.5740   -1.0507    3.6244 H   0  0  0  0  0  0  0  0  0  0  0  0
    2.5779   -2.0919    2.1805 H   0  0  0  0  0  0  0  0  0  0  0  0
    3.7334   -0.7375    2.2145 H   0  0  0  0  0  0  0  0  0  0  0  0
    1.8476    0.7977    1.8644 H   0  0  0  0  0  0  0  0  0  0  0  0
   -1.1176    1.8685    0.0622 H   0  0  0  0  0  0  0  0  0  0  0  0
    0.4688    1.7624    0.9837 H   0  0  0  0  0  0  0  0  0  0  0  0
   -1.5463   -1.8451    0.1553 H   0  0  0  0  0  0  0  0  0  0  0  0
   -4.6602   -0.9757   -0.6214 H   0  0  0  0  0  0  0  0  0  0  0  0
   -3.8810   -0.8774   -2.2218 H   0  0  0  0  0  0  0  0  0  0  0  0
   -3.3828   -2.2266   -1.0703 H   0  0  0  0  0  0  0  0  0  0  0  0
  1  2  1  0
  1 11  1  0
  1 12  1  0
  1 13  1  0
  2  3  1  0
  2 14  1  0
  3  4  2  0
  3  5  1  0
  5  6  2  3
  5  7  1  0
  6 15  1  0
  6 16  1  0
  7  8  1  0
  7 17  1  0
  8  9  1  0
  8 10  2  0
  9 18  1  0
  9 19  1  0
  9 20  1  0
M  END

> <RosettaParamsInstructions>
M  ROOT 7
M  POLY_N_BB 7
M  POLY_CA_BB 5
M  POLY_C_BB 3
M  POLY_O_BB 4
M  POLY_IGNORE 1 10 9 14 11 12 13 18 19 20
M  POLY_UPPER 2
M  POLY_LOWER 8
M  POLY_CHG 0
M  POLY_PROPERTIES PROTEIN POLYMER ALPHA_AA ALIPHATIC
M  END

$$$$
DHA_new
     RDKit          3D

 20 19  0  0  0  0  0  0  0  0999 V2000
    2.6842   -1.0441    2.5674 C   0  0  0  0  0  0  0  0  0  0  0  0
    1.6895   -0.2394    1.8661 N   0  0  0  0  0  0  0  0  0  0  0  0
    0.5688   -0.8329    1.3063 C   0  0  0  0  0  0  0  0  0  0  0  0
    0.4228   -2.0960    1.4152 O   0  0  0  0  0  0  0  0  0  0  0  0
   -0.4840   -0.0848    0.5800 C   0  0  0  0  0  0  0  0  0  0  0  0
   -0.3292    1.2098    0.4713 C   0  0  0  0  0  0  0  0  0  0  0  0
   -1.5811   -0.8079    0.0537 N   0  0  0  0  0  0  0  0  0  0  0  0
   -2.6372   -0.2404   -0.6467 C   0  0  0  0  0  0  0  0  0  0  0  0
   -3.7568   -1.1367   -1.1595 C   0  0  0  0  0  0  0  0  0  0  0  0
   -2.7830    0.9565   -0.9150 O   0  0  0  0  0  0  0  0  0  0  0  0
    2.1380   -1.8677    3.0986 H   0  0  0  0  0  0  0  0  0  0  0  0
    3.2417   -0.4300    3.3079 H   0  0  0  0  0  0  0  0  0  0  0  0
    3.4058   -1.4384    1.8255 H   0  0  0  0  0  0  0  0  0  0  0  0
    1.8713    0.7729    1.8165 H   0  0  0  0  0  0  0  0  0  0  0  0
   -1.0454    1.8341   -0.0404 H   0  0  0  0  0  0  0  0  0  0  0  0
    0.5356    1.7399    0.8923 H   0  0  0  0  0  0  0  0  0  0  0  0
   -1.5843   -1.8765    0.2157 H   0  0  0  0  0  0  0  0  0  0  0  0
   -3.3619   -2.1741   -1.2120 H   0  0  0  0  0  0  0  0  0  0  0  0
   -4.6346   -1.0751   -0.5160 H   0  0  0  0  0  0  0  0  0  0  0  0
   -3.9665   -0.8216   -2.1862 H   0  0  0  0  0  0  0  0  0  0  0  0
  1  2  1  0
  1 11  1  0
  1 12  1  0
  1 13  1  0
  2  3  1  0
  2 14  1  0
  3  4  2  0
  3  5  1  0
  5  6  2  3
  5  7  1  0
  6 15  1  0
  6 16  1  0
  7  8  1  0
  7 17  1  0
  8  9  1  0
  8 10  2  0
  9 18  1  0
  9 19  1  0
  9 20  1  0
M  END

> <RosettaParamsInstructions>
M  ROOT 7
M  POLY_N_BB 7
M  POLY_CA_BB 5
M  POLY_C_BB 3
M  POLY_O_BB 4
M  POLY_IGNORE 1 10 9 14 11 12 13 18 19 20
M  POLY_UPPER 2
M  POLY_LOWER 8
M  POLY_CHG 0
M  POLY_PROPERTIES PROTEIN POLYMER ALPHA_AA ALIPHATIC
M  END

$$$$
DHA_new
     RDKit          3D

 20 19  0  0  0  0  0  0  0  0999 V2000
    2.6589   -1.0796    2.6003 C   0  0  0  0  0  0  0  0  0  0  0  0
    1.7267   -0.2388    1.8324 N   0  0  0  0  0  0  0  0  0  0  0  0
    0.5560   -0.8123    1.3212 C   0  0  0  0  0  0  0  0  0  0  0  0
    0.3305   -2.0451    1.5348 O   0  0  0  0  0  0  0  0  0  0  0  0
   -0.4471   -0.0492    0.5342 C   0  0  0  0  0  0  0  0  0  0  0  0
   -0.2530    1.2228    0.2917 C   0  0  0  0  0  0  0  0  0  0  0  0
   -1.5799   -0.7286    0.0742 N   0  0  0  0  0  0  0  0  0  0  0  0
   -2.6397   -0.2324   -0.6710 C   0  0  0  0  0  0  0  0  0  0  0  0
   -3.7732   -1.1411   -1.0676 C   0  0  0  0  0  0  0  0  0  0  0  0
   -2.7227    0.9465   -1.0463 O   0  0  0  0  0  0  0  0  0  0  0  0
    3.3944   -1.5199    1.9159 H   0  0  0  0  0  0  0  0  0  0  0  0
    2.0347   -1.8752    3.0900 H   0  0  0  0  0  0  0  0  0  0  0  0
    3.1728   -0.4480    3.3437 H   0  0  0  0  0  0  0  0  0  0  0  0
    1.9825    0.7393    1.7069 H   0  0  0  0  0  0  0  0  0  0  0  0
   -0.9331    1.8210   -0.2643 H   0  0  0  0  0  0  0  0  0  0  0  0
    0.6606    1.7208    0.6767 H   0  0  0  0  0  0  0  0  0  0  0  0
   -1.6351   -1.7769    0.3341 H   0  0  0  0  0  0  0  0  0  0  0  0
   -3.3661   -2.1403   -1.2713 H   0  0  0  0  0  0  0  0  0  0  0  0
   -4.5047   -1.2435   -0.2304 H   0  0  0  0  0  0  0  0  0  0  0  0
   -4.2691   -0.7716   -1.9644 H   0  0  0  0  0  0  0  0  0  0  0  0
  1  2  1  0
  1 11  1  0
  1 12  1  0
  1 13  1  0
  2  3  1  0
  2 14  1  0
  3  4  2  0
  3  5  1  0
  5  6  2  3
  5  7  1  0
  6 15  1  0
  6 16  1  0
  7  8  1  0
  7 17  1  0
  8  9  1  0
  8 10  2  0
  9 18  1  0
  9 19  1  0
  9 20  1  0
M  END

> <RosettaParamsInstructions>
M  ROOT 7
M  POLY_N_BB 7
M  POLY_CA_BB 5
M  POLY_C_BB 3
M  POLY_O_BB 4
M  POLY_IGNORE 1 10 9 14 11 12 13 18 19 20
M  POLY_UPPER 2
M  POLY_LOWER 8
M  POLY_CHG 0
M  POLY_PROPERTIES PROTEIN POLYMER ALPHA_AA ALIPHATIC
M  END

$$$$
DHA_new
     RDKit          3D

 20 19  0  0  0  0  0  0  0  0999 V2000
    2.6555   -1.0562    2.5569 C   0  0  0  0  0  0  0  0  0  0  0  0
    1.6834   -0.2214    1.8525 N   0  0  0  0  0  0  0  0  0  0  0  0
    0.5557   -0.8200    1.2956 C   0  0  0  0  0  0  0  0  0  0  0  0
    0.4123   -2.0753    1.4207 O   0  0  0  0  0  0  0  0  0  0  0  0
   -0.4506   -0.0502    0.5822 C   0  0  0  0  0  0  0  0  0  0  0  0
   -0.3148    1.2433    0.4463 C   0  0  0  0  0  0  0  0  0  0  0  0
   -1.5526   -0.7610    0.0588 N   0  0  0  0  0  0  0  0  0  0  0  0
   -2.6378   -0.2585   -0.6563 C   0  0  0  0  0  0  0  0  0  0  0  0
   -3.7297   -1.1695   -1.1406 C   0  0  0  0  0  0  0  0  0  0  0  0
   -2.7640    0.9432   -0.9294 O   0  0  0  0  0  0  0  0  0  0  0  0
    3.2671   -0.4699    3.2699 H   0  0  0  0  0  0  0  0  0  0  0  0
    2.0734   -1.8061    3.1595 H   0  0  0  0  0  0  0  0  0  0  0  0
    3.2835   -1.5723    1.8152 H   0  0  0  0  0  0  0  0  0  0  0  0
    1.9064    0.7726    1.8172 H   0  0  0  0  0  0  0  0  0  0  0  0
    0.5670    1.7439    0.8764 H   0  0  0  0  0  0  0  0  0  0  0  0
   -0.9967    1.9145   -0.0620 H   0  0  0  0  0  0  0  0  0  0  0  0
   -1.5589   -1.8203    0.2311 H   0  0  0  0  0  0  0  0  0  0  0  0
   -4.0389   -0.8492   -2.1462 H   0  0  0  0  0  0  0  0  0  0  0  0
   -4.6077   -1.1262   -0.4785 H   0  0  0  0  0  0  0  0  0  0  0  0
   -3.3591   -2.2138   -1.2284 H   0  0  0  0  0  0  0  0  0  0  0  0
  1  2  1  0
  1 11  1  0
  1 12  1  0
  1 13  1  0
  2  3  1  0
  2 14  1  0
  3  4  2  0
  3  5  1  0
  5  6  2  3
  5  7  1  0
  6 15  1  0
  6 16  1  0
  7  8  1  0
  7 17  1  0
  8  9  1  0
  8 10  2  0
  9 18  1  0
  9 19  1  0
  9 20  1  0
M  END

> <RosettaParamsInstructions>
M  ROOT 7
M  POLY_N_BB 7
M  POLY_CA_BB 5
M  POLY_C_BB 3
M  POLY_O_BB 4
M  POLY_IGNORE 1 10 9 14 11 12 13 18 19 20
M  POLY_UPPER 2
M  POLY_LOWER 8
M  POLY_CHG 0
M  POLY_PROPERTIES PROTEIN POLYMER ALPHA_AA ALIPHATIC
M  END

$$$$
DHA_new
     RDKit          3D

 20 19  0  0  0  0  0  0  0  0999 V2000
    2.6618   -1.0928    2.6148 C   0  0  0  0  0  0  0  0  0  0  0  0
    1.7360   -0.2600    1.8535 N   0  0  0  0  0  0  0  0  0  0  0  0
    0.5513   -0.8094    1.3278 C   0  0  0  0  0  0  0  0  0  0  0  0
    0.3207   -2.0368    1.5366 O   0  0  0  0  0  0  0  0  0  0  0  0
   -0.4473   -0.0462    0.5440 C   0  0  0  0  0  0  0  0  0  0  0  0
   -0.2527    1.2215    0.3032 C   0  0  0  0  0  0  0  0  0  0  0  0
   -1.5861   -0.7329    0.0831 N   0  0  0  0  0  0  0  0  0  0  0  0
   -2.6655   -0.2500   -0.6690 C   0  0  0  0  0  0  0  0  0  0  0  0
   -3.8027   -1.1504   -1.0696 C   0  0  0  0  0  0  0  0  0  0  0  0
   -2.7626    0.9194   -1.0495 O   0  0  0  0  0  0  0  0  0  0  0  0
    3.4569   -1.4235    1.9086 H   0  0  0  0  0  0  0  0  0  0  0  0
    2.1462   -1.9604    3.0418 H   0  0  0  0  0  0  0  0  0  0  0  0
    3.1423   -0.4394    3.3596 H   0  0  0  0  0  0  0  0  0  0  0  0
    1.9674    0.7444    1.7072 H   0  0  0  0  0  0  0  0  0  0  0  0
    0.6438    1.7519    0.6690 H   0  0  0  0  0  0  0  0  0  0  0  0
   -0.9411    1.8130   -0.2552 H   0  0  0  0  0  0  0  0  0  0  0  0
   -1.6267   -1.7750    0.3495 H   0  0  0  0  0  0  0  0  0  0  0  0
   -3.7165   -2.0791   -0.4721 H   0  0  0  0  0  0  0  0  0  0  0  0
   -3.7021   -1.4521   -2.1323 H   0  0  0  0  0  0  0  0  0  0  0  0
   -4.7296   -0.5944   -0.9100 H   0  0  0  0  0  0  0  0  0  0  0  0
  1  2  1  0
  1 11  1  0
  1 12  1  0
  1 13  1  0
  2  3  1  0
  2 14  1  0
  3  4  2  0
  3  5  1  0
  5  6  2  3
  5  7  1  0
  6 15  1  0
  6 16  1  0
  7  8  1  0
  7 17  1  0
  8  9  1  0
  8 10  2  0
  9 18  1  0
  9 19  1  0
  9 20  1  0
M  END

> <RosettaParamsInstructions>
M  ROOT 7
M  POLY_N_BB 7
M  POLY_CA_BB 5
M  POLY_C_BB 3
M  POLY_O_BB 4
M  POLY_IGNORE 1 10 9 14 11 12 13 18 19 20
M  POLY_UPPER 2
M  POLY_LOWER 8
M  POLY_CHG 0
M  POLY_PROPERTIES PROTEIN POLYMER ALPHA_AA ALIPHATIC
M  END

$$$$
DHA_new
     RDKit          3D

 20 19  0  0  0  0  0  0  0  0999 V2000
    2.6604   -1.0822    2.5774 C   0  0  0  0  0  0  0  0  0  0  0  0
    1.7075   -0.2296    1.8808 N   0  0  0  0  0  0  0  0  0  0  0  0
    0.5650   -0.7985    1.3019 C   0  0  0  0  0  0  0  0  0  0  0  0
    0.3879   -2.0666    1.4021 O   0  0  0  0  0  0  0  0  0  0  0  0
   -0.4724   -0.0421    0.5713 C   0  0  0  0  0  0  0  0  0  0  0  0
   -0.3156    1.2468    0.4558 C   0  0  0  0  0  0  0  0  0  0  0  0
   -1.5790   -0.7281    0.0322 N   0  0  0  0  0  0  0  0  0  0  0  0
   -2.6650   -0.2255   -0.6861 C   0  0  0  0  0  0  0  0  0  0  0  0
   -3.7245   -1.1780   -1.1546 C   0  0  0  0  0  0  0  0  0  0  0  0
   -2.8195    0.9810   -0.9710 O   0  0  0  0  0  0  0  0  0  0  0  0
    3.6680   -0.6244    2.5254 H   0  0  0  0  0  0  0  0  0  0  0  0
    2.7354   -2.0837    2.1097 H   0  0  0  0  0  0  0  0  0  0  0  0
    2.2976   -1.1690    3.6247 H   0  0  0  0  0  0  0  0  0  0  0  0
    1.9057    0.7635    1.8373 H   0  0  0  0  0  0  0  0  0  0  0  0
   -1.0279    1.8643   -0.0616 H   0  0  0  0  0  0  0  0  0  0  0  0
    0.5449    1.7704    0.8766 H   0  0  0  0  0  0  0  0  0  0  0  0
   -1.5831   -1.7876    0.2003 H   0  0  0  0  0  0  0  0  0  0  0  0
   -4.4447   -1.3107   -0.3427 H   0  0  0  0  0  0  0  0  0  0  0  0
   -3.2307   -2.1336   -1.3707 H   0  0  0  0  0  0  0  0  0  0  0  0
   -4.2164   -0.8186   -2.0680 H   0  0  0  0  0  0  0  0  0  0  0  0
  1  2  1  0
  1 11  1  0
  1 12  1  0
  1 13  1  0
  2  3  1  0
  2 14  1  0
  3  4  2  0
  3  5  1  0
  5  6  2  3
  5  7  1  0
  6 15  1  0
  6 16  1  0
  7  8  1  0
  7 17  1  0
  8  9  1  0
  8 10  2  0
  9 18  1  0
  9 19  1  0
  9 20  1  0
M  END

> <RosettaParamsInstructions>
M  ROOT 7
M  POLY_N_BB 7
M  POLY_CA_BB 5
M  POLY_C_BB 3
M  POLY_O_BB 4
M  POLY_IGNORE 1 10 9 14 11 12 13 18 19 20
M  POLY_UPPER 2
M  POLY_LOWER 8
M  POLY_CHG 0
M  POLY_PROPERTIES PROTEIN POLYMER ALPHA_AA ALIPHATIC
M  END

$$$$
DHA_new
     RDKit          3D

 20 19  0  0  0  0  0  0  0  0999 V2000
    2.6840   -1.0619    2.5640 C   0  0  0  0  0  0  0  0  0  0  0  0
    1.6529   -0.2561    1.8951 N   0  0  0  0  0  0  0  0  0  0  0  0
    0.5493   -0.8395    1.2731 C   0  0  0  0  0  0  0  0  0  0  0  0
    0.4516   -2.0916    1.2961 O   0  0  0  0  0  0  0  0  0  0  0  0
   -0.4820   -0.0708    0.6065 C   0  0  0  0  0  0  0  0  0  0  0  0
   -0.3738    1.2459    0.5855 C   0  0  0  0  0  0  0  0  0  0  0  0
   -1.5561   -0.7768    0.0103 N   0  0  0  0  0  0  0  0  0  0  0  0
   -2.6536   -0.2355   -0.6811 C   0  0  0  0  0  0  0  0  0  0  0  0
   -3.7099   -1.1760   -1.2513 C   0  0  0  0  0  0  0  0  0  0  0  0
   -2.7978    0.9876   -0.8468 O   0  0  0  0  0  0  0  0  0  0  0  0
    2.5046   -0.9572    3.6555 H   0  0  0  0  0  0  0  0  0  0  0  0
    3.6865   -0.6774    2.2841 H   0  0  0  0  0  0  0  0  0  0  0  0
    2.5334   -2.1048    2.2756 H   0  0  0  0  0  0  0  0  0  0  0  0
    1.7863    0.7573    1.9090 H   0  0  0  0  0  0  0  0  0  0  0  0
    0.4675    1.7602    1.0551 H   0  0  0  0  0  0  0  0  0  0  0  0
   -1.1001    1.9102    0.1080 H   0  0  0  0  0  0  0  0  0  0  0  0
   -1.4983   -1.8453    0.1142 H   0  0  0  0  0  0  0  0  0  0  0  0
   -4.2919   -0.6497   -2.0053 H   0  0  0  0  0  0  0  0  0  0  0  0
   -4.2738   -1.5457   -0.3899 H   0  0  0  0  0  0  0  0  0  0  0  0
   -3.1851   -2.0253   -1.7169 H   0  0  0  0  0  0  0  0  0  0  0  0
  1  2  1  0
  1 11  1  0
  1 12  1  0
  1 13  1  0
  2  3  1  0
  2 14  1  0
  3  4  2  0
  3  5  1  0
  5  6  2  3
  5  7  1  0
  6 15  1  0
  6 16  1  0
  7  8  1  0
  7 17  1  0
  8  9  1  0
  8 10  2  0
  9 18  1  0
  9 19  1  0
  9 20  1  0
M  END

> <RosettaParamsInstructions>
M  ROOT 7
M  POLY_N_BB 7
M  POLY_CA_BB 5
M  POLY_C_BB 3
M  POLY_O_BB 4
M  POLY_IGNORE 1 10 9 14 11 12 13 18 19 20
M  POLY_UPPER 2
M  POLY_LOWER 8
M  POLY_CHG 0
M  POLY_PROPERTIES PROTEIN POLYMER ALPHA_AA ALIPHATIC
M  END

$$$$
DHA_new
     RDKit          3D

 20 19  0  0  0  0  0  0  0  0999 V2000
    2.6388   -1.0767    2.5717 C   0  0  0  0  0  0  0  0  0  0  0  0
    1.6892   -0.1866    1.8637 N   0  0  0  0  0  0  0  0  0  0  0  0
    0.5574   -0.8001    1.3047 C   0  0  0  0  0  0  0  0  0  0  0  0
    0.4056   -2.0576    1.4297 O   0  0  0  0  0  0  0  0  0  0  0  0
   -0.4583   -0.0484    0.5814 C   0  0  0  0  0  0  0  0  0  0  0  0
   -0.2944    1.2549    0.4556 C   0  0  0  0  0  0  0  0  0  0  0  0
   -1.5651   -0.7600    0.0539 N   0  0  0  0  0  0  0  0  0  0  0  0
   -2.6460   -0.2597   -0.6647 C   0  0  0  0  0  0  0  0  0  0  0  0
   -3.7352   -1.1843   -1.1457 C   0  0  0  0  0  0  0  0  0  0  0  0
   -2.7806    0.9390   -0.9476 O   0  0  0  0  0  0  0  0  0  0  0  0
    2.3943   -1.1025    3.6576 H   0  0  0  0  0  0  0  0  0  0  0  0
    2.5687   -2.1067    2.1406 H   0  0  0  0  0  0  0  0  0  0  0  0
    3.6478   -0.7050    2.3968 H   0  0  0  0  0  0  0  0  0  0  0  0
    1.9440    0.8102    1.8433 H   0  0  0  0  0  0  0  0  0  0  0  0
    0.5692    1.7698    0.8742 H   0  0  0  0  0  0  0  0  0  0  0  0
   -0.9831    1.9174   -0.0608 H   0  0  0  0  0  0  0  0  0  0  0  0
   -1.5588   -1.8182    0.2377 H   0  0  0  0  0  0  0  0  0  0  0  0
   -4.2627   -0.7510   -2.0080 H   0  0  0  0  0  0  0  0  0  0  0  0
   -4.4565   -1.3495   -0.3407 H   0  0  0  0  0  0  0  0  0  0  0  0
   -3.2806   -2.1370   -1.5027 H   0  0  0  0  0  0  0  0  0  0  0  0
  1  2  1  0
  1 11  1  0
  1 12  1  0
  1 13  1  0
  2  3  1  0
  2 14  1  0
  3  4  2  0
  3  5  1  0
  5  6  2  3
  5  7  1  0
  6 15  1  0
  6 16  1  0
  7  8  1  0
  7 17  1  0
  8  9  1  0
  8 10  2  0
  9 18  1  0
  9 19  1  0
  9 20  1  0
M  END

> <RosettaParamsInstructions>
M  ROOT 7
M  POLY_N_BB 7
M  POLY_CA_BB 5
M  POLY_C_BB 3
M  POLY_O_BB 4
M  POLY_IGNORE 1 10 9 14 11 12 13 18 19 20
M  POLY_UPPER 2
M  POLY_LOWER 8
M  POLY_CHG 0
M  POLY_PROPERTIES PROTEIN POLYMER ALPHA_AA ALIPHATIC
M  END

$$$$
DHA_new
     RDKit          3D

 20 19  0  0  0  0  0  0  0  0999 V2000
    2.6977   -1.0668    2.5072 C   0  0  0  0  0  0  0  0  0  0  0  0
    1.6924   -0.2090    1.8568 N   0  0  0  0  0  0  0  0  0  0  0  0
    0.5926   -0.8527    1.2784 C   0  0  0  0  0  0  0  0  0  0  0  0
    0.4440   -2.0995    1.2977 O   0  0  0  0  0  0  0  0  0  0  0  0
   -0.4683   -0.0686    0.6022 C   0  0  0  0  0  0  0  0  0  0  0  0
   -0.3933    1.2376    0.5355 C   0  0  0  0  0  0  0  0  0  0  0  0
   -1.5601   -0.7600    0.0325 N   0  0  0  0  0  0  0  0  0  0  0  0
   -2.6580   -0.2465   -0.6421 C   0  0  0  0  0  0  0  0  0  0  0  0
   -3.7342   -1.1589   -1.1843 C   0  0  0  0  0  0  0  0  0  0  0  0
   -2.8612    0.9641   -0.8608 O   0  0  0  0  0  0  0  0  0  0  0  0
    3.7094   -0.5915    2.4182 H   0  0  0  0  0  0  0  0  0  0  0  0
    2.4938   -1.1514    3.5937 H   0  0  0  0  0  0  0  0  0  0  0  0
    2.6944   -2.0793    2.0753 H   0  0  0  0  0  0  0  0  0  0  0  0
    1.8913    0.8008    1.8863 H   0  0  0  0  0  0  0  0  0  0  0  0
   -1.1077    1.8754    0.0709 H   0  0  0  0  0  0  0  0  0  0  0  0
    0.4591    1.7485    0.9827 H   0  0  0  0  0  0  0  0  0  0  0  0
   -1.5250   -1.8289    0.1425 H   0  0  0  0  0  0  0  0  0  0  0  0
   -3.7058   -2.1423   -0.6447 H   0  0  0  0  0  0  0  0  0  0  0  0
   -4.7135   -0.6904   -0.9613 H   0  0  0  0  0  0  0  0  0  0  0  0
   -3.5542   -1.3328   -2.2460 H   0  0  0  0  0  0  0  0  0  0  0  0
  1  2  1  0
  1 11  1  0
  1 12  1  0
  1 13  1  0
  2  3  1  0
  2 14  1  0
  3  4  2  0
  3  5  1  0
  5  6  2  3
  5  7  1  0
  6 15  1  0
  6 16  1  0
  7  8  1  0
  7 17  1  0
  8  9  1  0
  8 10  2  0
  9 18  1  0
  9 19  1  0
  9 20  1  0
M  END

> <RosettaParamsInstructions>
M  ROOT 7
M  POLY_N_BB 7
M  POLY_CA_BB 5
M  POLY_C_BB 3
M  POLY_O_BB 4
M  POLY_IGNORE 1 10 9 14 11 12 13 18 19 20
M  POLY_UPPER 2
M  POLY_LOWER 8
M  POLY_CHG 0
M  POLY_PROPERTIES PROTEIN POLYMER ALPHA_AA ALIPHATIC
M  END

$$$$
DHA_new
     RDKit          3D

 20 19  0  0  0  0  0  0  0  0999 V2000
    2.6433   -1.0743    2.5744 C   0  0  0  0  0  0  0  0  0  0  0  0
    1.7209   -0.2144    1.8112 N   0  0  0  0  0  0  0  0  0  0  0  0
    0.5600   -0.8122    1.3114 C   0  0  0  0  0  0  0  0  0  0  0  0
    0.3622   -2.0322    1.5329 O   0  0  0  0  0  0  0  0  0  0  0  0
   -0.4526   -0.0609    0.5265 C   0  0  0  0  0  0  0  0  0  0  0  0
   -0.2474    1.2172    0.2933 C   0  0  0  0  0  0  0  0  0  0  0  0
   -1.5841   -0.7707    0.0742 N   0  0  0  0  0  0  0  0  0  0  0  0
   -2.6307   -0.2533   -0.6661 C   0  0  0  0  0  0  0  0  0  0  0  0
   -3.7647   -1.1683   -1.0636 C   0  0  0  0  0  0  0  0  0  0  0  0
   -2.7147    0.9217   -1.0363 O   0  0  0  0  0  0  0  0  0  0  0  0
    3.2490   -1.6937    1.8776 H   0  0  0  0  0  0  0  0  0  0  0  0
    2.0021   -1.7406    3.1826 H   0  0  0  0  0  0  0  0  0  0  0  0
    3.2718   -0.4696    3.2571 H   0  0  0  0  0  0  0  0  0  0  0  0
    2.0020    0.7841    1.6981 H   0  0  0  0  0  0  0  0  0  0  0  0
    0.6505    1.7208    0.6686 H   0  0  0  0  0  0  0  0  0  0  0  0
   -0.9201    1.8309   -0.2596 H   0  0  0  0  0  0  0  0  0  0  0  0
   -1.6063   -1.8096    0.3464 H   0  0  0  0  0  0  0  0  0  0  0  0
   -4.5898   -0.9643   -0.3217 H   0  0  0  0  0  0  0  0  0  0  0  0
   -3.4153   -2.2106   -1.0213 H   0  0  0  0  0  0  0  0  0  0  0  0
   -4.1425   -0.8521   -2.0448 H   0  0  0  0  0  0  0  0  0  0  0  0
  1  2  1  0
  1 11  1  0
  1 12  1  0
  1 13  1  0
  2  3  1  0
  2 14  1  0
  3  4  2  0
  3  5  1  0
  5  6  2  3
  5  7  1  0
  6 15  1  0
  6 16  1  0
  7  8  1  0
  7 17  1  0
  8  9  1  0
  8 10  2  0
  9 18  1  0
  9 19  1  0
  9 20  1  0
M  END

> <RosettaParamsInstructions>
M  ROOT 7
M  POLY_N_BB 7
M  POLY_CA_BB 5
M  POLY_C_BB 3
M  POLY_O_BB 4
M  POLY_IGNORE 1 10 9 14 11 12 13 18 19 20
M  POLY_UPPER 2
M  POLY_LOWER 8
M  POLY_CHG 0
M  POLY_PROPERTIES PROTEIN POLYMER ALPHA_AA ALIPHATIC
M  END

$$$$
DHA_new
     RDKit          3D

 20 19  0  0  0  0  0  0  0  0999 V2000
    2.6843   -1.0866    2.5572 C   0  0  0  0  0  0  0  0  0  0  0  0
    1.7160   -0.2306    1.8648 N   0  0  0  0  0  0  0  0  0  0  0  0
    0.5719   -0.8080    1.2912 C   0  0  0  0  0  0  0  0  0  0  0  0
    0.4257   -2.0683    1.4006 O   0  0  0  0  0  0  0  0  0  0  0  0
   -0.4774   -0.0491    0.5667 C   0  0  0  0  0  0  0  0  0  0  0  0
   -0.3068    1.2504    0.4654 C   0  0  0  0  0  0  0  0  0  0  0  0
   -1.5772   -0.7529    0.0383 N   0  0  0  0  0  0  0  0  0  0  0  0
   -2.6727   -0.2457   -0.6743 C   0  0  0  0  0  0  0  0  0  0  0  0
   -3.7514   -1.1929   -1.1530 C   0  0  0  0  0  0  0  0  0  0  0  0
   -2.8021    0.9585   -0.9346 O   0  0  0  0  0  0  0  0  0  0  0  0
    3.6984   -0.6598    2.5344 H   0  0  0  0  0  0  0  0  0  0  0  0
    2.6442   -2.0836    2.1177 H   0  0  0  0  0  0  0  0  0  0  0  0
    2.3626   -1.0956    3.6195 H   0  0  0  0  0  0  0  0  0  0  0  0
    1.9188    0.7718    1.8278 H   0  0  0  0  0  0  0  0  0  0  0  0
   -1.0133    1.8882   -0.0420 H   0  0  0  0  0  0  0  0  0  0  0  0
    0.5422    1.7561    0.8791 H   0  0  0  0  0  0  0  0  0  0  0  0
   -1.5601   -1.8049    0.2102 H   0  0  0  0  0  0  0  0  0  0  0  0
   -3.3153   -2.2101   -1.1788 H   0  0  0  0  0  0  0  0  0  0  0  0
   -4.6435   -1.1192   -0.4941 H   0  0  0  0  0  0  0  0  0  0  0  0
   -4.0506   -0.8699   -2.1551 H   0  0  0  0  0  0  0  0  0  0  0  0
  1  2  1  0
  1 11  1  0
  1 12  1  0
  1 13  1  0
  2  3  1  0
  2 14  1  0
  3  4  2  0
  3  5  1  0
  5  6  2  3
  5  7  1  0
  6 15  1  0
  6 16  1  0
  7  8  1  0
  7 17  1  0
  8  9  1  0
  8 10  2  0
  9 18  1  0
  9 19  1  0
  9 20  1  0
M  END

> <RosettaParamsInstructions>
M  ROOT 7
M  POLY_N_BB 7
M  POLY_CA_BB 5
M  POLY_C_BB 3
M  POLY_O_BB 4
M  POLY_IGNORE 1 10 9 14 11 12 13 18 19 20
M  POLY_UPPER 2
M  POLY_LOWER 8
M  POLY_CHG 0
M  POLY_PROPERTIES PROTEIN POLYMER ALPHA_AA ALIPHATIC
M  END

$$$$
DHA_new
     RDKit          3D

 20 19  0  0  0  0  0  0  0  0999 V2000
    2.6881   -1.0516    2.5159 C   0  0  0  0  0  0  0  0  0  0  0  0
    1.6790   -0.2106    1.8512 N   0  0  0  0  0  0  0  0  0  0  0  0
    0.5717   -0.8398    1.2756 C   0  0  0  0  0  0  0  0  0  0  0  0
    0.4765   -2.1003    1.3457 O   0  0  0  0  0  0  0  0  0  0  0  0
   -0.4902   -0.0871    0.5894 C   0  0  0  0  0  0  0  0  0  0  0  0
   -0.3702    1.2156    0.5294 C   0  0  0  0  0  0  0  0  0  0  0  0
   -1.5542   -0.8086    0.0480 N   0  0  0  0  0  0  0  0  0  0  0  0
   -2.6454   -0.2554   -0.6352 C   0  0  0  0  0  0  0  0  0  0  0  0
   -3.7379   -1.1753   -1.1734 C   0  0  0  0  0  0  0  0  0  0  0  0
   -2.8371    0.9480   -0.8649 O   0  0  0  0  0  0  0  0  0  0  0  0
    3.5596   -1.1731    1.8677 H   0  0  0  0  0  0  0  0  0  0  0  0
    3.0057   -0.5694    3.4696 H   0  0  0  0  0  0  0  0  0  0  0  0
    2.2642   -2.0450    2.7349 H   0  0  0  0  0  0  0  0  0  0  0  0
    1.8768    0.8055    1.8644 H   0  0  0  0  0  0  0  0  0  0  0  0
    0.4918    1.7500    0.9730 H   0  0  0  0  0  0  0  0  0  0  0  0
   -1.1208    1.8100    0.0381 H   0  0  0  0  0  0  0  0  0  0  0  0
   -1.5126   -1.8673    0.1769 H   0  0  0  0  0  0  0  0  0  0  0  0
   -4.6892   -0.7742   -0.7729 H   0  0  0  0  0  0  0  0  0  0  0  0
   -3.7346   -1.0289   -2.2543 H   0  0  0  0  0  0  0  0  0  0  0  0
   -3.5276   -2.1946   -0.8383 H   0  0  0  0  0  0  0  0  0  0  0  0
  1  2  1  0
  1 11  1  0
  1 12  1  0
  1 13  1  0
  2  3  1  0
  2 14  1  0
  3  4  2  0
  3  5  1  0
  5  6  2  3
  5  7  1  0
  6 15  1  0
  6 16  1  0
  7  8  1  0
  7 17  1  0
  8  9  1  0
  8 10  2  0
  9 18  1  0
  9 19  1  0
  9 20  1  0
M  END

> <RosettaParamsInstructions>
M  ROOT 7
M  POLY_N_BB 7
M  POLY_CA_BB 5
M  POLY_C_BB 3
M  POLY_O_BB 4
M  POLY_IGNORE 1 10 9 14 11 12 13 18 19 20
M  POLY_UPPER 2
M  POLY_LOWER 8
M  POLY_CHG 0
M  POLY_PROPERTIES PROTEIN POLYMER ALPHA_AA ALIPHATIC
M  END

$$$$
DHA_new
     RDKit          3D

 20 19  0  0  0  0  0  0  0  0999 V2000
    2.6741   -1.0582    2.5675 C   0  0  0  0  0  0  0  0  0  0  0  0
    1.6512   -0.2316    1.9003 N   0  0  0  0  0  0  0  0  0  0  0  0
    0.5605   -0.8375    1.2821 C   0  0  0  0  0  0  0  0  0  0  0  0
    0.4609   -2.1042    1.3016 O   0  0  0  0  0  0  0  0  0  0  0  0
   -0.4848   -0.0562    0.6042 C   0  0  0  0  0  0  0  0  0  0  0  0
   -0.4274    1.2449    0.5572 C   0  0  0  0  0  0  0  0  0  0  0  0
   -1.5452   -0.7680    0.0109 N   0  0  0  0  0  0  0  0  0  0  0  0
   -2.6349   -0.2460   -0.6774 C   0  0  0  0  0  0  0  0  0  0  0  0
   -3.6844   -1.1709   -1.2508 C   0  0  0  0  0  0  0  0  0  0  0  0
   -2.7921    0.9774   -0.8487 O   0  0  0  0  0  0  0  0  0  0  0  0
    2.5352   -0.9313    3.6489 H   0  0  0  0  0  0  0  0  0  0  0  0
    3.6810   -0.7366    2.2887 H   0  0  0  0  0  0  0  0  0  0  0  0
    2.5500   -2.1180    2.2764 H   0  0  0  0  0  0  0  0  0  0  0  0
    1.7931    0.7753    1.9225 H   0  0  0  0  0  0  0  0  0  0  0  0
    0.4353    1.7342    1.0455 H   0  0  0  0  0  0  0  0  0  0  0  0
   -1.1272    1.9004    0.0950 H   0  0  0  0  0  0  0  0  0  0  0  0
   -1.5167   -1.8397    0.0952 H   0  0  0  0  0  0  0  0  0  0  0  0
   -4.5498   -0.6057   -1.6120 H   0  0  0  0  0  0  0  0  0  0  0  0
   -3.9823   -1.8304   -0.4098 H   0  0  0  0  0  0  0  0  0  0  0  0
   -3.2030   -1.7502   -2.0562 H   0  0  0  0  0  0  0  0  0  0  0  0
  1  2  1  0
  1 11  1  0
  1 12  1  0
  1 13  1  0
  2  3  1  0
  2 14  1  0
  3  4  2  0
  3  5  1  0
  5  6  2  3
  5  7  1  0
  6 15  1  0
  6 16  1  0
  7  8  1  0
  7 17  1  0
  8  9  1  0
  8 10  2  0
  9 18  1  0
  9 19  1  0
  9 20  1  0
M  END

> <RosettaParamsInstructions>
M  ROOT 7
M  POLY_N_BB 7
M  POLY_CA_BB 5
M  POLY_C_BB 3
M  POLY_O_BB 4
M  POLY_IGNORE 1 10 9 14 11 12 13 18 19 20
M  POLY_UPPER 2
M  POLY_LOWER 8
M  POLY_CHG 0
M  POLY_PROPERTIES PROTEIN POLYMER ALPHA_AA ALIPHATIC
M  END

$$$$
DHA_new
     RDKit          3D

 20 19  0  0  0  0  0  0  0  0999 V2000
    2.6038   -1.0162    2.6463 C   0  0  0  0  0  0  0  0  0  0  0  0
    1.6673   -0.2101    1.8500 N   0  0  0  0  0  0  0  0  0  0  0  0
    0.5337   -0.8306    1.3457 C   0  0  0  0  0  0  0  0  0  0  0  0
    0.3369   -2.0726    1.5848 O   0  0  0  0  0  0  0  0  0  0  0  0
   -0.4419   -0.0822    0.5423 C   0  0  0  0  0  0  0  0  0  0  0  0
   -0.2245    1.1786    0.3101 C   0  0  0  0  0  0  0  0  0  0  0  0
   -1.5618   -0.8012    0.0747 N   0  0  0  0  0  0  0  0  0  0  0  0
   -2.6040   -0.2756   -0.7047 C   0  0  0  0  0  0  0  0  0  0  0  0
   -3.7495   -1.1901   -1.1314 C   0  0  0  0  0  0  0  0  0  0  0  0
   -2.6502    0.9117   -1.0745 O   0  0  0  0  0  0  0  0  0  0  0  0
    3.3730   -1.4444    1.9816 H   0  0  0  0  0  0  0  0  0  0  0  0
    3.0207   -0.4065    3.4744 H   0  0  0  0  0  0  0  0  0  0  0  0
    2.0536   -1.8499    3.1045 H   0  0  0  0  0  0  0  0  0  0  0  0
    1.9461    0.7695    1.7359 H   0  0  0  0  0  0  0  0  0  0  0  0
    0.6554    1.7206    0.6841 H   0  0  0  0  0  0  0  0  0  0  0  0
   -0.8777    1.8130   -0.2662 H   0  0  0  0  0  0  0  0  0  0  0  0
   -1.6615   -1.8443    0.3150 H   0  0  0  0  0  0  0  0  0  0  0  0
   -3.8315   -1.0611   -2.2292 H   0  0  0  0  0  0  0  0  0  0  0  0
   -3.5445   -2.2180   -0.8233 H   0  0  0  0  0  0  0  0  0  0  0  0
   -4.6499   -0.7427   -0.6793 H   0  0  0  0  0  0  0  0  0  0  0  0
  1  2  1  0
  1 11  1  0
  1 12  1  0
  1 13  1  0
  2  3  1  0
  2 14  1  0
  3  4  2  0
  3  5  1  0
  5  6  2  3
  5  7  1  0
  6 15  1  0
  6 16  1  0
  7  8  1  0
  7 17  1  0
  8  9  1  0
  8 10  2  0
  9 18  1  0
  9 19  1  0
  9 20  1  0
M  END

> <RosettaParamsInstructions>
M  ROOT 7
M  POLY_N_BB 7
M  POLY_CA_BB 5
M  POLY_C_BB 3
M  POLY_O_BB 4
M  POLY_IGNORE 1 10 9 14 11 12 13 18 19 20
M  POLY_UPPER 2
M  POLY_LOWER 8
M  POLY_CHG 0
M  POLY_PROPERTIES PROTEIN POLYMER ALPHA_AA ALIPHATIC
M  END

$$$$
DHA_new
     RDKit          3D

 20 19  0  0  0  0  0  0  0  0999 V2000
    2.6644   -1.0441    2.5711 C   0  0  0  0  0  0  0  0  0  0  0  0
    1.7068   -0.2508    1.8455 N   0  0  0  0  0  0  0  0  0  0  0  0
    0.5464   -0.8121    1.3013 C   0  0  0  0  0  0  0  0  0  0  0  0
    0.3823   -2.0593    1.4814 O   0  0  0  0  0  0  0  0  0  0  0  0
   -0.4795   -0.0789    0.5496 C   0  0  0  0  0  0  0  0  0  0  0  0
   -0.3087    1.2089    0.3644 C   0  0  0  0  0  0  0  0  0  0  0  0
   -1.5911   -0.7955    0.0677 N   0  0  0  0  0  0  0  0  0  0  0  0
   -2.6330   -0.2396   -0.6542 C   0  0  0  0  0  0  0  0  0  0  0  0
   -3.7578   -1.1474   -1.1016 C   0  0  0  0  0  0  0  0  0  0  0  0
   -2.7687    0.9477   -0.9936 O   0  0  0  0  0  0  0  0  0  0  0  0
    2.3427   -2.1239    2.5947 H   0  0  0  0  0  0  0  0  0  0  0  0
    2.7523   -0.7234    3.6288 H   0  0  0  0  0  0  0  0  0  0  0  0
    3.6873   -1.0019    2.1441 H   0  0  0  0  0  0  0  0  0  0  0  0
    1.9161    0.7534    1.7448 H   0  0  0  0  0  0  0  0  0  0  0  0
   -0.9762    1.8616   -0.1634 H   0  0  0  0  0  0  0  0  0  0  0  0
    0.5740    1.7298    0.7576 H   0  0  0  0  0  0  0  0  0  0  0  0
   -1.6066   -1.8438    0.2895 H   0  0  0  0  0  0  0  0  0  0  0  0
   -3.9950   -0.8770   -2.1533 H   0  0  0  0  0  0  0  0  0  0  0  0
   -4.6112   -0.9568   -0.4288 H   0  0  0  0  0  0  0  0  0  0  0  0
   -3.4510   -2.1990   -1.1047 H   0  0  0  0  0  0  0  0  0  0  0  0
  1  2  1  0
  1 11  1  0
  1 12  1  0
  1 13  1  0
  2  3  1  0
  2 14  1  0
  3  4  2  0
  3  5  1  0
  5  6  2  3
  5  7  1  0
  6 15  1  0
  6 16  1  0
  7  8  1  0
  7 17  1  0
  8  9  1  0
  8 10  2  0
  9 18  1  0
  9 19  1  0
  9 20  1  0
M  END

> <RosettaParamsInstructions>
M  ROOT 7
M  POLY_N_BB 7
M  POLY_CA_BB 5
M  POLY_C_BB 3
M  POLY_O_BB 4
M  POLY_IGNORE 1 10 9 14 11 12 13 18 19 20
M  POLY_UPPER 2
M  POLY_LOWER 8
M  POLY_CHG 0
M  POLY_PROPERTIES PROTEIN POLYMER ALPHA_AA ALIPHATIC
M  END

$$$$
DHA_new
     RDKit          3D

 20 19  0  0  0  0  0  0  0  0999 V2000
    2.6963   -1.0729    2.5121 C   0  0  0  0  0  0  0  0  0  0  0  0
    1.6932   -0.2408    1.8384 N   0  0  0  0  0  0  0  0  0  0  0  0
    0.5686   -0.8404    1.2792 C   0  0  0  0  0  0  0  0  0  0  0  0
    0.4146   -2.1018    1.3535 O   0  0  0  0  0  0  0  0  0  0  0  0
   -0.4901   -0.0842    0.5838 C   0  0  0  0  0  0  0  0  0  0  0  0
   -0.3621    1.2193    0.4894 C   0  0  0  0  0  0  0  0  0  0  0  0
   -1.5891   -0.7887    0.0525 N   0  0  0  0  0  0  0  0  0  0  0  0
   -2.6535   -0.2201   -0.6221 C   0  0  0  0  0  0  0  0  0  0  0  0
   -3.7501   -1.1471   -1.1235 C   0  0  0  0  0  0  0  0  0  0  0  0
   -2.7899    0.9926   -0.8544 O   0  0  0  0  0  0  0  0  0  0  0  0
    2.3622   -2.1107    2.5709 H   0  0  0  0  0  0  0  0  0  0  0  0
    2.8523   -0.6201    3.5223 H   0  0  0  0  0  0  0  0  0  0  0  0
    3.6477   -1.0476    1.9230 H   0  0  0  0  0  0  0  0  0  0  0  0
    1.8887    0.7637    1.8204 H   0  0  0  0  0  0  0  0  0  0  0  0
   -1.0494    1.8801    0.0162 H   0  0  0  0  0  0  0  0  0  0  0  0
    0.5071    1.7282    0.9158 H   0  0  0  0  0  0  0  0  0  0  0  0
   -1.5863   -1.8510    0.1900 H   0  0  0  0  0  0  0  0  0  0  0  0
   -3.7706   -2.0495   -0.4770 H   0  0  0  0  0  0  0  0  0  0  0  0
   -4.6993   -0.5791   -1.1042 H   0  0  0  0  0  0  0  0  0  0  0  0
   -3.4965   -1.4821   -2.1455 H   0  0  0  0  0  0  0  0  0  0  0  0
  1  2  1  0
  1 11  1  0
  1 12  1  0
  1 13  1  0
  2  3  1  0
  2 14  1  0
  3  4  2  0
  3  5  1  0
  5  6  2  3
  5  7  1  0
  6 15  1  0
  6 16  1  0
  7  8  1  0
  7 17  1  0
  8  9  1  0
  8 10  2  0
  9 18  1  0
  9 19  1  0
  9 20  1  0
M  END

> <RosettaParamsInstructions>
M  ROOT 7
M  POLY_N_BB 7
M  POLY_CA_BB 5
M  POLY_C_BB 3
M  POLY_O_BB 4
M  POLY_IGNORE 1 10 9 14 11 12 13 18 19 20
M  POLY_UPPER 2
M  POLY_LOWER 8
M  POLY_CHG 0
M  POLY_PROPERTIES PROTEIN POLYMER ALPHA_AA ALIPHATIC
M  END

$$$$
DHA_new
     RDKit          3D

 20 19  0  0  0  0  0  0  0  0999 V2000
    2.6652   -1.0679    2.5642 C   0  0  0  0  0  0  0  0  0  0  0  0
    1.6992   -0.2305    1.8535 N   0  0  0  0  0  0  0  0  0  0  0  0
    0.5713   -0.8147    1.3016 C   0  0  0  0  0  0  0  0  0  0  0  0
    0.3888   -2.0724    1.4193 O   0  0  0  0  0  0  0  0  0  0  0  0
   -0.4533   -0.0604    0.5717 C   0  0  0  0  0  0  0  0  0  0  0  0
   -0.3238    1.2206    0.4191 C   0  0  0  0  0  0  0  0  0  0  0  0
   -1.5725   -0.7577    0.0449 N   0  0  0  0  0  0  0  0  0  0  0  0
   -2.6383   -0.2339   -0.6680 C   0  0  0  0  0  0  0  0  0  0  0  0
   -3.7353   -1.1727   -1.1388 C   0  0  0  0  0  0  0  0  0  0  0  0
   -2.8015    0.9616   -0.9756 O   0  0  0  0  0  0  0  0  0  0  0  0
    2.1553   -2.0043    2.8885 H   0  0  0  0  0  0  0  0  0  0  0  0
    2.9985   -0.5133    3.4616 H   0  0  0  0  0  0  0  0  0  0  0  0
    3.5356   -1.3085    1.9379 H   0  0  0  0  0  0  0  0  0  0  0  0
    1.9278    0.7633    1.8096 H   0  0  0  0  0  0  0  0  0  0  0  0
   -1.0033    1.8663   -0.0909 H   0  0  0  0  0  0  0  0  0  0  0  0
    0.5529    1.7347    0.8373 H   0  0  0  0  0  0  0  0  0  0  0  0
   -1.5890   -1.8167    0.2238 H   0  0  0  0  0  0  0  0  0  0  0  0
   -3.3956   -2.2099   -1.0467 H   0  0  0  0  0  0  0  0  0  0  0  0
   -3.9620   -0.9018   -2.1752 H   0  0  0  0  0  0  0  0  0  0  0  0
   -4.6265   -1.0341   -0.4971 H   0  0  0  0  0  0  0  0  0  0  0  0
  1  2  1  0
  1 11  1  0
  1 12  1  0
  1 13  1  0
  2  3  1  0
  2 14  1  0
  3  4  2  0
  3  5  1  0
  5  6  2  3
  5  7  1  0
  6 15  1  0
  6 16  1  0
  7  8  1  0
  7 17  1  0
  8  9  1  0
  8 10  2  0
  9 18  1  0
  9 19  1  0
  9 20  1  0
M  END

> <RosettaParamsInstructions>
M  ROOT 7
M  POLY_N_BB 7
M  POLY_CA_BB 5
M  POLY_C_BB 3
M  POLY_O_BB 4
M  POLY_IGNORE 1 10 9 14 11 12 13 18 19 20
M  POLY_UPPER 2
M  POLY_LOWER 8
M  POLY_CHG 0
M  POLY_PROPERTIES PROTEIN POLYMER ALPHA_AA ALIPHATIC
M  END

$$$$
DHA_new
     RDKit          3D

 20 19  0  0  0  0  0  0  0  0999 V2000
    2.6827   -1.0500    2.5942 C   0  0  0  0  0  0  0  0  0  0  0  0
    1.6886   -0.2201    1.8688 N   0  0  0  0  0  0  0  0  0  0  0  0
    0.5669   -0.8353    1.3141 C   0  0  0  0  0  0  0  0  0  0  0  0
    0.4038   -2.0729    1.4286 O   0  0  0  0  0  0  0  0  0  0  0  0
   -0.4666   -0.0850    0.5790 C   0  0  0  0  0  0  0  0  0  0  0  0
   -0.3471    1.1925    0.4321 C   0  0  0  0  0  0  0  0  0  0  0  0
   -1.5587   -0.8111    0.0605 N   0  0  0  0  0  0  0  0  0  0  0  0
   -2.6141   -0.2601   -0.6535 C   0  0  0  0  0  0  0  0  0  0  0  0
   -3.7485   -1.1464   -1.1696 C   0  0  0  0  0  0  0  0  0  0  0  0
   -2.7369    0.9500   -0.9313 O   0  0  0  0  0  0  0  0  0  0  0  0
    3.6714   -0.5959    2.4919 H   0  0  0  0  0  0  0  0  0  0  0  0
    2.3757   -1.0764    3.6392 H   0  0  0  0  0  0  0  0  0  0  0  0
    2.7363   -2.0598    2.1230 H   0  0  0  0  0  0  0  0  0  0  0  0
    1.8971    0.7882    1.8200 H   0  0  0  0  0  0  0  0  0  0  0  0
   -1.0332    1.8252   -0.0787 H   0  0  0  0  0  0  0  0  0  0  0  0
    0.5295    1.7075    0.8598 H   0  0  0  0  0  0  0  0  0  0  0  0
   -1.6021   -1.8779    0.2164 H   0  0  0  0  0  0  0  0  0  0  0  0
   -4.6795   -0.5689   -1.2460 H   0  0  0  0  0  0  0  0  0  0  0  0
   -3.9125   -1.9571   -0.4392 H   0  0  0  0  0  0  0  0  0  0  0  0
   -3.4592   -1.4987   -2.1686 H   0  0  0  0  0  0  0  0  0  0  0  0
  1  2  1  0
  1 11  1  0
  1 12  1  0
  1 13  1  0
  2  3  1  0
  2 14  1  0
  3  4  2  0
  3  5  1  0
  5  6  2  3
  5  7  1  0
  6 15  1  0
  6 16  1  0
  7  8  1  0
  7 17  1  0
  8  9  1  0
  8 10  2  0
  9 18  1  0
  9 19  1  0
  9 20  1  0
M  END

> <RosettaParamsInstructions>
M  ROOT 7
M  POLY_N_BB 7
M  POLY_CA_BB 5
M  POLY_C_BB 3
M  POLY_O_BB 4
M  POLY_IGNORE 1 10 9 14 11 12 13 18 19 20
M  POLY_UPPER 2
M  POLY_LOWER 8
M  POLY_CHG 0
M  POLY_PROPERTIES PROTEIN POLYMER ALPHA_AA ALIPHATIC
M  END

$$$$
DHA_new
     RDKit          3D

 20 19  0  0  0  0  0  0  0  0999 V2000
    2.3470   -1.5823    2.3865 C   0  0  0  0  0  0  0  0  0  0  0  0
    1.1156   -1.2481    1.6316 N   0  0  0  0  0  0  0  0  0  0  0  0
    0.8252    0.0963    1.3816 C   0  0  0  0  0  0  0  0  0  0  0  0
    1.6200    0.9854    1.8060 O   0  0  0  0  0  0  0  0  0  0  0  0
   -0.3814    0.4886    0.6382 C   0  0  0  0  0  0  0  0  0  0  0  0
   -0.5867    1.7679    0.4428 C   0  0  0  0  0  0  0  0  0  0  0  0
   -1.3038   -0.4490    0.1403 N   0  0  0  0  0  0  0  0  0  0  0  0
   -2.4813   -0.2138   -0.5767 C   0  0  0  0  0  0  0  0  0  0  0  0
   -3.3061   -1.4173   -1.0010 C   0  0  0  0  0  0  0  0  0  0  0  0
   -2.9635    0.8705   -0.9265 O   0  0  0  0  0  0  0  0  0  0  0  0
    2.7276   -0.6886    2.9158 H   0  0  0  0  0  0  0  0  0  0  0  0
    3.0890   -2.0207    1.6861 H   0  0  0  0  0  0  0  0  0  0  0  0
    2.0370   -2.3100    3.1557 H   0  0  0  0  0  0  0  0  0  0  0  0
    0.5005   -1.9990    1.3067 H   0  0  0  0  0  0  0  0  0  0  0  0
   -1.4241    2.1322   -0.0784 H   0  0  0  0  0  0  0  0  0  0  0  0
    0.1222    2.4822    0.8258 H   0  0  0  0  0  0  0  0  0  0  0  0
   -1.0671   -1.4731    0.3400 H   0  0  0  0  0  0  0  0  0  0  0  0
   -2.6395   -2.2811   -1.0623 H   0  0  0  0  0  0  0  0  0  0  0  0
   -4.1051   -1.5728   -0.2523 H   0  0  0  0  0  0  0  0  0  0  0  0
   -3.7320   -1.2196   -2.0187 H   0  0  0  0  0  0  0  0  0  0  0  0
  1  2  1  0
  1 11  1  0
  1 12  1  0
  1 13  1  0
  2  3  1  0
  2 14  1  0
  3  4  2  0
  3  5  1  0
  5  6  2  3
  5  7  1  0
  6 15  1  0
  6 16  1  0
  7  8  1  0
  7 17  1  0
  8  9  1  0
  8 10  2  0
  9 18  1  0
  9 19  1  0
  9 20  1  0
M  END

> <RosettaParamsInstructions>
M  ROOT 7
M  POLY_N_BB 7
M  POLY_CA_BB 5
M  POLY_C_BB 3
M  POLY_O_BB 4
M  POLY_IGNORE 1 10 9 14 11 12 13 18 19 20
M  POLY_UPPER 2
M  POLY_LOWER 8
M  POLY_CHG 0
M  POLY_PROPERTIES PROTEIN POLYMER ALPHA_AA ALIPHATIC
M  END

$$$$
DHA_new
     RDKit          3D

 20 19  0  0  0  0  0  0  0  0999 V2000
    2.3324   -1.6006    2.3775 C   0  0  0  0  0  0  0  0  0  0  0  0
    1.1116   -1.2255    1.6326 N   0  0  0  0  0  0  0  0  0  0  0  0
    0.8034    0.1032    1.3605 C   0  0  0  0  0  0  0  0  0  0  0  0
    1.6112    0.9927    1.7787 O   0  0  0  0  0  0  0  0  0  0  0  0
   -0.3989    0.5135    0.6205 C   0  0  0  0  0  0  0  0  0  0  0  0
   -0.5893    1.8025    0.4221 C   0  0  0  0  0  0  0  0  0  0  0  0
   -1.3072   -0.4397    0.1431 N   0  0  0  0  0  0  0  0  0  0  0  0
   -2.4965   -0.2343   -0.5782 C   0  0  0  0  0  0  0  0  0  0  0  0
   -3.3039   -1.4471   -0.9798 C   0  0  0  0  0  0  0  0  0  0  0  0
   -2.9443    0.8748   -0.9171 O   0  0  0  0  0  0  0  0  0  0  0  0
    2.0481   -2.0930    3.3295 H   0  0  0  0  0  0  0  0  0  0  0  0
    2.9116   -0.6912    2.6108 H   0  0  0  0  0  0  0  0  0  0  0  0
    2.9224   -2.2679    1.7356 H   0  0  0  0  0  0  0  0  0  0  0  0
    0.4993   -1.9970    1.3244 H   0  0  0  0  0  0  0  0  0  0  0  0
    0.1589    2.5178    0.8185 H   0  0  0  0  0  0  0  0  0  0  0  0
   -1.4229    2.2094   -0.0994 H   0  0  0  0  0  0  0  0  0  0  0  0
   -1.0814   -1.4607    0.3462 H   0  0  0  0  0  0  0  0  0  0  0  0
   -4.3692   -1.2086   -0.8319 H   0  0  0  0  0  0  0  0  0  0  0  0
   -3.0767   -1.7020   -2.0293 H   0  0  0  0  0  0  0  0  0  0  0  0
   -3.0152   -2.2986   -0.3235 H   0  0  0  0  0  0  0  0  0  0  0  0
  1  2  1  0
  1 11  1  0
  1 12  1  0
  1 13  1  0
  2  3  1  0
  2 14  1  0
  3  4  2  0
  3  5  1  0
  5  6  2  3
  5  7  1  0
  6 15  1  0
  6 16  1  0
  7  8  1  0
  7 17  1  0
  8  9  1  0
  8 10  2  0
  9 18  1  0
  9 19  1  0
  9 20  1  0
M  END

> <RosettaParamsInstructions>
M  ROOT 7
M  POLY_N_BB 7
M  POLY_CA_BB 5
M  POLY_C_BB 3
M  POLY_O_BB 4
M  POLY_IGNORE 1 10 9 14 11 12 13 18 19 20
M  POLY_UPPER 2
M  POLY_LOWER 8
M  POLY_CHG 0
M  POLY_PROPERTIES PROTEIN POLYMER ALPHA_AA ALIPHATIC
M  END

$$$$
DHA_new
     RDKit          3D

 20 19  0  0  0  0  0  0  0  0999 V2000
    2.6517   -1.0672    2.5671 C   0  0  0  0  0  0  0  0  0  0  0  0
    1.6685   -0.2236    1.8459 N   0  0  0  0  0  0  0  0  0  0  0  0
    0.5452   -0.8601    1.2892 C   0  0  0  0  0  0  0  0  0  0  0  0
    0.3742   -2.1232    1.3991 O   0  0  0  0  0  0  0  0  0  0  0  0
   -0.4674   -0.0741    0.5603 C   0  0  0  0  0  0  0  0  0  0  0  0
   -0.3206    1.2079    0.4329 C   0  0  0  0  0  0  0  0  0  0  0  0
   -1.5637   -0.7839    0.0317 N   0  0  0  0  0  0  0  0  0  0  0  0
   -2.6165   -0.2313   -0.6820 C   0  0  0  0  0  0  0  0  0  0  0  0
   -3.7132   -1.1679   -1.1728 C   0  0  0  0  0  0  0  0  0  0  0  0
   -2.7130    0.9709   -0.9396 O   0  0  0  0  0  0  0  0  0  0  0  0
    2.5288   -2.1176    2.3028 H   0  0  0  0  0  0  0  0  0  0  0  0
    3.6666   -0.6819    2.3567 H   0  0  0  0  0  0  0  0  0  0  0  0
    2.4485   -0.8839    3.6525 H   0  0  0  0  0  0  0  0  0  0  0  0
    1.9000    0.7650    1.8175 H   0  0  0  0  0  0  0  0  0  0  0  0
    0.5637    1.6968    0.8732 H   0  0  0  0  0  0  0  0  0  0  0  0
   -1.0033    1.8622   -0.0794 H   0  0  0  0  0  0  0  0  0  0  0  0
   -1.6146   -1.8512    0.1798 H   0  0  0  0  0  0  0  0  0  0  0  0
   -3.2945   -2.1733   -1.3035 H   0  0  0  0  0  0  0  0  0  0  0  0
   -4.4549   -1.1757   -0.3313 H   0  0  0  0  0  0  0  0  0  0  0  0
   -4.1920   -0.7404   -2.0592 H   0  0  0  0  0  0  0  0  0  0  0  0
  1  2  1  0
  1 11  1  0
  1 12  1  0
  1 13  1  0
  2  3  1  0
  2 14  1  0
  3  4  2  0
  3  5  1  0
  5  6  2  3
  5  7  1  0
  6 15  1  0
  6 16  1  0
  7  8  1  0
  7 17  1  0
  8  9  1  0
  8 10  2  0
  9 18  1  0
  9 19  1  0
  9 20  1  0
M  END

> <RosettaParamsInstructions>
M  ROOT 7
M  POLY_N_BB 7
M  POLY_CA_BB 5
M  POLY_C_BB 3
M  POLY_O_BB 4
M  POLY_IGNORE 1 10 9 14 11 12 13 18 19 20
M  POLY_UPPER 2
M  POLY_LOWER 8
M  POLY_CHG 0
M  POLY_PROPERTIES PROTEIN POLYMER ALPHA_AA ALIPHATIC
M  END

$$$$
DHA_new
     RDKit          3D

 20 19  0  0  0  0  0  0  0  0999 V2000
    2.6465   -1.0449    2.5922 C   0  0  0  0  0  0  0  0  0  0  0  0
    1.6793   -0.2129    1.8705 N   0  0  0  0  0  0  0  0  0  0  0  0
    0.5540   -0.8079    1.3178 C   0  0  0  0  0  0  0  0  0  0  0  0
    0.4066   -2.0605    1.4608 O   0  0  0  0  0  0  0  0  0  0  0  0
   -0.4710   -0.0378    0.5736 C   0  0  0  0  0  0  0  0  0  0  0  0
   -0.2867    1.2476    0.4462 C   0  0  0  0  0  0  0  0  0  0  0  0
   -1.5736   -0.7668    0.0587 N   0  0  0  0  0  0  0  0  0  0  0  0
   -2.6548   -0.2631   -0.6697 C   0  0  0  0  0  0  0  0  0  0  0  0
   -3.7585   -1.1677   -1.1530 C   0  0  0  0  0  0  0  0  0  0  0  0
   -2.7432    0.9494   -0.9441 O   0  0  0  0  0  0  0  0  0  0  0  0
    3.6501   -0.5780    2.6191 H   0  0  0  0  0  0  0  0  0  0  0  0
    2.2481   -1.2938    3.5919 H   0  0  0  0  0  0  0  0  0  0  0  0
    2.7720   -1.9699    1.9616 H   0  0  0  0  0  0  0  0  0  0  0  0
    1.9121    0.7835    1.8247 H   0  0  0  0  0  0  0  0  0  0  0  0
   -0.9719    1.8823   -0.0733 H   0  0  0  0  0  0  0  0  0  0  0  0
    0.5732    1.7269    0.8641 H   0  0  0  0  0  0  0  0  0  0  0  0
   -1.5747   -1.8075    0.2489 H   0  0  0  0  0  0  0  0  0  0  0  0
   -4.6916   -0.6222   -1.3102 H   0  0  0  0  0  0  0  0  0  0  0  0
   -3.9219   -2.0031   -0.4366 H   0  0  0  0  0  0  0  0  0  0  0  0
   -3.4006   -1.6057   -2.1026 H   0  0  0  0  0  0  0  0  0  0  0  0
  1  2  1  0
  1 11  1  0
  1 12  1  0
  1 13  1  0
  2  3  1  0
  2 14  1  0
  3  4  2  0
  3  5  1  0
  5  6  2  3
  5  7  1  0
  6 15  1  0
  6 16  1  0
  7  8  1  0
  7 17  1  0
  8  9  1  0
  8 10  2  0
  9 18  1  0
  9 19  1  0
  9 20  1  0
M  END

> <RosettaParamsInstructions>
M  ROOT 7
M  POLY_N_BB 7
M  POLY_CA_BB 5
M  POLY_C_BB 3
M  POLY_O_BB 4
M  POLY_IGNORE 1 10 9 14 11 12 13 18 19 20
M  POLY_UPPER 2
M  POLY_LOWER 8
M  POLY_CHG 0
M  POLY_PROPERTIES PROTEIN POLYMER ALPHA_AA ALIPHATIC
M  END

$$$$
DHA_new
     RDKit          3D

 20 19  0  0  0  0  0  0  0  0999 V2000
    2.5875   -1.0410    2.6659 C   0  0  0  0  0  0  0  0  0  0  0  0
    1.6667   -0.2242    1.8817 N   0  0  0  0  0  0  0  0  0  0  0  0
    0.5238   -0.8246    1.3455 C   0  0  0  0  0  0  0  0  0  0  0  0
    0.3066   -2.0527    1.5452 O   0  0  0  0  0  0  0  0  0  0  0  0
   -0.4523   -0.0556    0.5405 C   0  0  0  0  0  0  0  0  0  0  0  0
   -0.2639    1.2080    0.3135 C   0  0  0  0  0  0  0  0  0  0  0  0
   -1.5625   -0.7689    0.0548 N   0  0  0  0  0  0  0  0  0  0  0  0
   -2.5872   -0.2320   -0.7171 C   0  0  0  0  0  0  0  0  0  0  0  0
   -3.7019   -1.1903   -1.1391 C   0  0  0  0  0  0  0  0  0  0  0  0
   -2.6776    0.9609   -1.0954 O   0  0  0  0  0  0  0  0  0  0  0  0
    2.9835   -0.4355    3.4798 H   0  0  0  0  0  0  0  0  0  0  0  0
    2.0781   -1.9676    2.9952 H   0  0  0  0  0  0  0  0  0  0  0  0
    3.4068   -1.3465    1.9815 H   0  0  0  0  0  0  0  0  0  0  0  0
    1.9126    0.7572    1.7663 H   0  0  0  0  0  0  0  0  0  0  0  0
    0.6213    1.7393    0.7109 H   0  0  0  0  0  0  0  0  0  0  0  0
   -0.9248    1.8026   -0.2516 H   0  0  0  0  0  0  0  0  0  0  0  0
   -1.6508   -1.8188    0.2851 H   0  0  0  0  0  0  0  0  0  0  0  0
   -3.4453   -1.5915   -2.1264 H   0  0  0  0  0  0  0  0  0  0  0  0
   -3.7996   -1.9850   -0.3770 H   0  0  0  0  0  0  0  0  0  0  0  0
   -4.6276   -0.5861   -1.1185 H   0  0  0  0  0  0  0  0  0  0  0  0
  1  2  1  0
  1 11  1  0
  1 12  1  0
  1 13  1  0
  2  3  1  0
  2 14  1  0
  3  4  2  0
  3  5  1  0
  5  6  2  3
  5  7  1  0
  6 15  1  0
  6 16  1  0
  7  8  1  0
  7 17  1  0
  8  9  1  0
  8 10  2  0
  9 18  1  0
  9 19  1  0
  9 20  1  0
M  END

> <RosettaParamsInstructions>
M  ROOT 7
M  POLY_N_BB 7
M  POLY_CA_BB 5
M  POLY_C_BB 3
M  POLY_O_BB 4
M  POLY_IGNORE 1 10 9 14 11 12 13 18 19 20
M  POLY_UPPER 2
M  POLY_LOWER 8
M  POLY_CHG 0
M  POLY_PROPERTIES PROTEIN POLYMER ALPHA_AA ALIPHATIC
M  END

$$$$
DHA_new
     RDKit          3D

 20 19  0  0  0  0  0  0  0  0999 V2000
    2.6834   -1.1153    2.4883 C   0  0  0  0  0  0  0  0  0  0  0  0
    1.7153   -0.2351    1.8107 N   0  0  0  0  0  0  0  0  0  0  0  0
    0.5685   -0.8302    1.2679 C   0  0  0  0  0  0  0  0  0  0  0  0
    0.3903   -2.0814    1.3673 O   0  0  0  0  0  0  0  0  0  0  0  0
   -0.4456   -0.0524    0.5809 C   0  0  0  0  0  0  0  0  0  0  0  0
   -0.3332    1.2437    0.4377 C   0  0  0  0  0  0  0  0  0  0  0  0
   -1.5618   -0.7508    0.0715 N   0  0  0  0  0  0  0  0  0  0  0  0
   -2.6531   -0.2212   -0.6190 C   0  0  0  0  0  0  0  0  0  0  0  0
   -3.7356   -1.1842   -1.0677 C   0  0  0  0  0  0  0  0  0  0  0  0
   -2.8069    1.0018   -0.8985 O   0  0  0  0  0  0  0  0  0  0  0  0
    3.5456   -1.3177    1.8348 H   0  0  0  0  0  0  0  0  0  0  0  0
    2.1824   -2.0152    2.8739 H   0  0  0  0  0  0  0  0  0  0  0  0
    3.0544   -0.5378    3.3580 H   0  0  0  0  0  0  0  0  0  0  0  0
    1.8906    0.7628    1.7498 H   0  0  0  0  0  0  0  0  0  0  0  0
    0.5528    1.7658    0.8472 H   0  0  0  0  0  0  0  0  0  0  0  0
   -1.0366    1.8925   -0.0561 H   0  0  0  0  0  0  0  0  0  0  0  0
   -1.6044   -1.8238    0.2181 H   0  0  0  0  0  0  0  0  0  0  0  0
   -3.7722   -2.0015   -0.3471 H   0  0  0  0  0  0  0  0  0  0  0  0
   -4.6908   -0.6088   -1.0883 H   0  0  0  0  0  0  0  0  0  0  0  0
   -3.5495   -1.5436   -2.0887 H   0  0  0  0  0  0  0  0  0  0  0  0
  1  2  1  0
  1 11  1  0
  1 12  1  0
  1 13  1  0
  2  3  1  0
  2 14  1  0
  3  4  2  0
  3  5  1  0
  5  6  2  3
  5  7  1  0
  6 15  1  0
  6 16  1  0
  7  8  1  0
  7 17  1  0
  8  9  1  0
  8 10  2  0
  9 18  1  0
  9 19  1  0
  9 20  1  0
M  END

> <RosettaParamsInstructions>
M  ROOT 7
M  POLY_N_BB 7
M  POLY_CA_BB 5
M  POLY_C_BB 3
M  POLY_O_BB 4
M  POLY_IGNORE 1 10 9 14 11 12 13 18 19 20
M  POLY_UPPER 2
M  POLY_LOWER 8
M  POLY_CHG 0
M  POLY_PROPERTIES PROTEIN POLYMER ALPHA_AA ALIPHATIC
M  END

$$$$
DHA_new
     RDKit          3D

 20 19  0  0  0  0  0  0  0  0999 V2000
    2.3055   -1.5995    2.3745 C   0  0  0  0  0  0  0  0  0  0  0  0
    1.0940   -1.2262    1.6252 N   0  0  0  0  0  0  0  0  0  0  0  0
    0.7824    0.1219    1.3682 C   0  0  0  0  0  0  0  0  0  0  0  0
    1.5785    1.0068    1.8026 O   0  0  0  0  0  0  0  0  0  0  0  0
   -0.4164    0.5223    0.6252 C   0  0  0  0  0  0  0  0  0  0  0  0
   -0.6311    1.8128    0.4296 C   0  0  0  0  0  0  0  0  0  0  0  0
   -1.2905   -0.4656    0.1493 N   0  0  0  0  0  0  0  0  0  0  0  0
   -2.4820   -0.2229   -0.5812 C   0  0  0  0  0  0  0  0  0  0  0  0
   -3.2759   -1.4488   -0.9967 C   0  0  0  0  0  0  0  0  0  0  0  0
   -2.9394    0.8700   -0.9131 O   0  0  0  0  0  0  0  0  0  0  0  0
    2.8593   -0.6893    2.6871 H   0  0  0  0  0  0  0  0  0  0  0  0
    2.9942   -2.1564    1.6919 H   0  0  0  0  0  0  0  0  0  0  0  0
    2.0510   -2.1992    3.2576 H   0  0  0  0  0  0  0  0  0  0  0  0
    0.5346   -2.0513    1.3305 H   0  0  0  0  0  0  0  0  0  0  0  0
   -1.4494    2.2258   -0.0847 H   0  0  0  0  0  0  0  0  0  0  0  0
    0.0868    2.5421    0.8247 H   0  0  0  0  0  0  0  0  0  0  0  0
   -1.0227   -1.4802    0.3627 H   0  0  0  0  0  0  0  0  0  0  0  0
   -4.3508   -1.1746   -0.9864 H   0  0  0  0  0  0  0  0  0  0  0  0
   -2.9251   -1.7929   -1.9927 H   0  0  0  0  0  0  0  0  0  0  0  0
   -3.1093   -2.2467   -0.2334 H   0  0  0  0  0  0  0  0  0  0  0  0
  1  2  1  0
  1 11  1  0
  1 12  1  0
  1 13  1  0
  2  3  1  0
  2 14  1  0
  3  4  2  0
  3  5  1  0
  5  6  2  3
  5  7  1  0
  6 15  1  0
  6 16  1  0
  7  8  1  0
  7 17  1  0
  8  9  1  0
  8 10  2  0
  9 18  1  0
  9 19  1  0
  9 20  1  0
M  END

> <RosettaParamsInstructions>
M  ROOT 7
M  POLY_N_BB 7
M  POLY_CA_BB 5
M  POLY_C_BB 3
M  POLY_O_BB 4
M  POLY_IGNORE 1 10 9 14 11 12 13 18 19 20
M  POLY_UPPER 2
M  POLY_LOWER 8
M  POLY_CHG 0
M  POLY_PROPERTIES PROTEIN POLYMER ALPHA_AA ALIPHATIC
M  END

$$$$
DHA_new
     RDKit          3D

 20 19  0  0  0  0  0  0  0  0999 V2000
    2.6339   -1.0624    2.5704 C   0  0  0  0  0  0  0  0  0  0  0  0
    1.6626   -0.2323    1.8601 N   0  0  0  0  0  0  0  0  0  0  0  0
    0.5416   -0.8227    1.3018 C   0  0  0  0  0  0  0  0  0  0  0  0
    0.3818   -2.0841    1.4209 O   0  0  0  0  0  0  0  0  0  0  0  0
   -0.4655   -0.0371    0.5780 C   0  0  0  0  0  0  0  0  0  0  0  0
   -0.2989    1.2527    0.4580 C   0  0  0  0  0  0  0  0  0  0  0  0
   -1.5644   -0.7494    0.0532 N   0  0  0  0  0  0  0  0  0  0  0  0
   -2.6407   -0.2197   -0.6679 C   0  0  0  0  0  0  0  0  0  0  0  0
   -3.7111   -1.1916   -1.1322 C   0  0  0  0  0  0  0  0  0  0  0  0
   -2.7743    0.9974   -0.9519 O   0  0  0  0  0  0  0  0  0  0  0  0
    3.3731   -1.4129    1.8169 H   0  0  0  0  0  0  0  0  0  0  0  0
    3.1452   -0.4853    3.3407 H   0  0  0  0  0  0  0  0  0  0  0  0
    2.0800   -1.9508    2.9760 H   0  0  0  0  0  0  0  0  0  0  0  0
    1.8723    0.7628    1.8152 H   0  0  0  0  0  0  0  0  0  0  0  0
    0.5650    1.7775    0.8766 H   0  0  0  0  0  0  0  0  0  0  0  0
   -0.9879    1.8982   -0.0554 H   0  0  0  0  0  0  0  0  0  0  0  0
   -1.5770   -1.7980    0.2228 H   0  0  0  0  0  0  0  0  0  0  0  0
   -4.4427   -1.3684   -0.3047 H   0  0  0  0  0  0  0  0  0  0  0  0
   -3.2385   -2.1609   -1.4063 H   0  0  0  0  0  0  0  0  0  0  0  0
   -4.1609   -0.7652   -2.0312 H   0  0  0  0  0  0  0  0  0  0  0  0
  1  2  1  0
  1 11  1  0
  1 12  1  0
  1 13  1  0
  2  3  1  0
  2 14  1  0
  3  4  2  0
  3  5  1  0
  5  6  2  3
  5  7  1  0
  6 15  1  0
  6 16  1  0
  7  8  1  0
  7 17  1  0
  8  9  1  0
  8 10  2  0
  9 18  1  0
  9 19  1  0
  9 20  1  0
M  END

> <RosettaParamsInstructions>
M  ROOT 7
M  POLY_N_BB 7
M  POLY_CA_BB 5
M  POLY_C_BB 3
M  POLY_O_BB 4
M  POLY_IGNORE 1 10 9 14 11 12 13 18 19 20
M  POLY_UPPER 2
M  POLY_LOWER 8
M  POLY_CHG 0
M  POLY_PROPERTIES PROTEIN POLYMER ALPHA_AA ALIPHATIC
M  END

$$$$
DHA_new
     RDKit          3D

 20 19  0  0  0  0  0  0  0  0999 V2000
    2.6631   -1.1111    2.5510 C   0  0  0  0  0  0  0  0  0  0  0  0
    1.7331   -0.2215    1.8349 N   0  0  0  0  0  0  0  0  0  0  0  0
    0.5697   -0.7848    1.2980 C   0  0  0  0  0  0  0  0  0  0  0  0
    0.3832   -2.0270    1.4586 O   0  0  0  0  0  0  0  0  0  0  0  0
   -0.4696   -0.0468    0.5526 C   0  0  0  0  0  0  0  0  0  0  0  0
   -0.3258    1.2323    0.3600 C   0  0  0  0  0  0  0  0  0  0  0  0
   -1.5717   -0.7636    0.0832 N   0  0  0  0  0  0  0  0  0  0  0  0
   -2.6325   -0.2260   -0.6313 C   0  0  0  0  0  0  0  0  0  0  0  0
   -3.7532   -1.1621   -1.0642 C   0  0  0  0  0  0  0  0  0  0  0  0
   -2.7891    0.9469   -0.9710 O   0  0  0  0  0  0  0  0  0  0  0  0
    3.5237   -1.3275    1.8808 H   0  0  0  0  0  0  0  0  0  0  0  0
    2.1519   -2.0319    2.8574 H   0  0  0  0  0  0  0  0  0  0  0  0
    3.0463   -0.6020    3.4375 H   0  0  0  0  0  0  0  0  0  0  0  0
    1.9407    0.7885    1.7360 H   0  0  0  0  0  0  0  0  0  0  0  0
   -1.0249    1.8617   -0.1699 H   0  0  0  0  0  0  0  0  0  0  0  0
    0.5663    1.7224    0.7593 H   0  0  0  0  0  0  0  0  0  0  0  0
   -1.6005   -1.8032    0.2896 H   0  0  0  0  0  0  0  0  0  0  0  0
   -4.6830   -0.6546   -0.7968 H   0  0  0  0  0  0  0  0  0  0  0  0
   -3.6948   -1.2938   -2.1481 H   0  0  0  0  0  0  0  0  0  0  0  0
   -3.6396   -2.1483   -0.5766 H   0  0  0  0  0  0  0  0  0  0  0  0
  1  2  1  0
  1 11  1  0
  1 12  1  0
  1 13  1  0
  2  3  1  0
  2 14  1  0
  3  4  2  0
  3  5  1  0
  5  6  2  3
  5  7  1  0
  6 15  1  0
  6 16  1  0
  7  8  1  0
  7 17  1  0
  8  9  1  0
  8 10  2  0
  9 18  1  0
  9 19  1  0
  9 20  1  0
M  END

> <RosettaParamsInstructions>
M  ROOT 7
M  POLY_N_BB 7
M  POLY_CA_BB 5
M  POLY_C_BB 3
M  POLY_O_BB 4
M  POLY_IGNORE 1 10 9 14 11 12 13 18 19 20
M  POLY_UPPER 2
M  POLY_LOWER 8
M  POLY_CHG 0
M  POLY_PROPERTIES PROTEIN POLYMER ALPHA_AA ALIPHATIC
M  END

$$$$
DHA_new
     RDKit          3D

 20 19  0  0  0  0  0  0  0  0999 V2000
    2.6853   -1.0691    2.5901 C   0  0  0  0  0  0  0  0  0  0  0  0
    1.7003   -0.2451    1.8865 N   0  0  0  0  0  0  0  0  0  0  0  0
    0.5636   -0.8292    1.2999 C   0  0  0  0  0  0  0  0  0  0  0  0
    0.4431   -2.0938    1.4142 O   0  0  0  0  0  0  0  0  0  0  0  0
   -0.4548   -0.0742    0.5868 C   0  0  0  0  0  0  0  0  0  0  0  0
   -0.3656    1.2212    0.4494 C   0  0  0  0  0  0  0  0  0  0  0  0
   -1.5385   -0.8038    0.0528 N   0  0  0  0  0  0  0  0  0  0  0  0
   -2.6196   -0.2574   -0.6668 C   0  0  0  0  0  0  0  0  0  0  0  0
   -3.7167   -1.1616   -1.1832 C   0  0  0  0  0  0  0  0  0  0  0  0
   -2.7888    0.9427   -0.9430 O   0  0  0  0  0  0  0  0  0  0  0  0
    2.1171   -1.8133    3.1873 H   0  0  0  0  0  0  0  0  0  0  0  0
    3.2846   -0.4171    3.2404 H   0  0  0  0  0  0  0  0  0  0  0  0
    3.2958   -1.5699    1.8179 H   0  0  0  0  0  0  0  0  0  0  0  0
    1.8456    0.7764    1.8225 H   0  0  0  0  0  0  0  0  0  0  0  0
    0.4948    1.7804    0.8762 H   0  0  0  0  0  0  0  0  0  0  0  0
   -1.0504    1.8850   -0.0531 H   0  0  0  0  0  0  0  0  0  0  0  0
   -1.5559   -1.8638    0.1981 H   0  0  0  0  0  0  0  0  0  0  0  0
   -3.6086   -2.1117   -0.6457 H   0  0  0  0  0  0  0  0  0  0  0  0
   -3.6596   -1.2922   -2.2664 H   0  0  0  0  0  0  0  0  0  0  0  0
   -4.6784   -0.6556   -0.9230 H   0  0  0  0  0  0  0  0  0  0  0  0
  1  2  1  0
  1 11  1  0
  1 12  1  0
  1 13  1  0
  2  3  1  0
  2 14  1  0
  3  4  2  0
  3  5  1  0
  5  6  2  3
  5  7  1  0
  6 15  1  0
  6 16  1  0
  7  8  1  0
  7 17  1  0
  8  9  1  0
  8 10  2  0
  9 18  1  0
  9 19  1  0
  9 20  1  0
M  END

> <RosettaParamsInstructions>
M  ROOT 7
M  POLY_N_BB 7
M  POLY_CA_BB 5
M  POLY_C_BB 3
M  POLY_O_BB 4
M  POLY_IGNORE 1 10 9 14 11 12 13 18 19 20
M  POLY_UPPER 2
M  POLY_LOWER 8
M  POLY_CHG 0
M  POLY_PROPERTIES PROTEIN POLYMER ALPHA_AA ALIPHATIC
M  END

$$$$
DHA_new
     RDKit          3D

 20 19  0  0  0  0  0  0  0  0999 V2000
    2.6715   -1.0910    2.5811 C   0  0  0  0  0  0  0  0  0  0  0  0
    1.7152   -0.2421    1.8705 N   0  0  0  0  0  0  0  0  0  0  0  0
    0.5660   -0.8037    1.3070 C   0  0  0  0  0  0  0  0  0  0  0  0
    0.4080   -2.0690    1.4476 O   0  0  0  0  0  0  0  0  0  0  0  0
   -0.4632   -0.0602    0.5735 C   0  0  0  0  0  0  0  0  0  0  0  0
   -0.3285    1.2292    0.4150 C   0  0  0  0  0  0  0  0  0  0  0  0
   -1.5646   -0.7758    0.0661 N   0  0  0  0  0  0  0  0  0  0  0  0
   -2.6275   -0.2505   -0.6468 C   0  0  0  0  0  0  0  0  0  0  0  0
   -3.7292   -1.1528   -1.1201 C   0  0  0  0  0  0  0  0  0  0  0  0
   -2.7494    0.9414   -0.9363 O   0  0  0  0  0  0  0  0  0  0  0  0
    2.1588   -1.9870    2.9699 H   0  0  0  0  0  0  0  0  0  0  0  0
    3.0406   -0.5040    3.4331 H   0  0  0  0  0  0  0  0  0  0  0  0
    3.4782   -1.3127    1.8637 H   0  0  0  0  0  0  0  0  0  0  0  0
    1.8992    0.7777    1.7900 H   0  0  0  0  0  0  0  0  0  0  0  0
    0.5524    1.7330    0.8335 H   0  0  0  0  0  0  0  0  0  0  0  0
   -1.0012    1.8962   -0.0976 H   0  0  0  0  0  0  0  0  0  0  0  0
   -1.5989   -1.8387    0.2413 H   0  0  0  0  0  0  0  0  0  0  0  0
   -3.6539   -2.1615   -0.7117 H   0  0  0  0  0  0  0  0  0  0  0  0
   -3.6586   -1.2604   -2.2384 H   0  0  0  0  0  0  0  0  0  0  0  0
   -4.7214   -0.7203   -0.9006 H   0  0  0  0  0  0  0  0  0  0  0  0
  1  2  1  0
  1 11  1  0
  1 12  1  0
  1 13  1  0
  2  3  1  0
  2 14  1  0
  3  4  2  0
  3  5  1  0
  5  6  2  3
  5  7  1  0
  6 15  1  0
  6 16  1  0
  7  8  1  0
  7 17  1  0
  8  9  1  0
  8 10  2  0
  9 18  1  0
  9 19  1  0
  9 20  1  0
M  END

> <RosettaParamsInstructions>
M  ROOT 7
M  POLY_N_BB 7
M  POLY_CA_BB 5
M  POLY_C_BB 3
M  POLY_O_BB 4
M  POLY_IGNORE 1 10 9 14 11 12 13 18 19 20
M  POLY_UPPER 2
M  POLY_LOWER 8
M  POLY_CHG 0
M  POLY_PROPERTIES PROTEIN POLYMER ALPHA_AA ALIPHATIC
M  END

$$$$
DHA_new
     RDKit          3D

 20 19  0  0  0  0  0  0  0  0999 V2000
    2.3080   -1.5785    2.4159 C   0  0  0  0  0  0  0  0  0  0  0  0
    1.0835   -1.2223    1.6479 N   0  0  0  0  0  0  0  0  0  0  0  0
    0.8281    0.1120    1.3180 C   0  0  0  0  0  0  0  0  0  0  0  0
    1.6445    0.9998    1.6785 O   0  0  0  0  0  0  0  0  0  0  0  0
   -0.3664    0.5215    0.5605 C   0  0  0  0  0  0  0  0  0  0  0  0
   -0.5396    1.8018    0.2862 C   0  0  0  0  0  0  0  0  0  0  0  0
   -1.2971   -0.4567    0.1450 N   0  0  0  0  0  0  0  0  0  0  0  0
   -2.4892   -0.2628   -0.5821 C   0  0  0  0  0  0  0  0  0  0  0  0
   -3.3370   -1.4688   -0.9182 C   0  0  0  0  0  0  0  0  0  0  0  0
   -2.8643    0.8588   -0.9536 O   0  0  0  0  0  0  0  0  0  0  0  0
    3.0251   -0.7472    2.2580 H   0  0  0  0  0  0  0  0  0  0  0  0
    2.0047   -1.6717    3.4665 H   0  0  0  0  0  0  0  0  0  0  0  0
    2.7035   -2.5536    2.0734 H   0  0  0  0  0  0  0  0  0  0  0  0
    0.4490   -2.0017    1.3797 H   0  0  0  0  0  0  0  0  0  0  0  0
    0.2162    2.4957    0.6372 H   0  0  0  0  0  0  0  0  0  0  0  0
   -1.3468    2.2156   -0.2441 H   0  0  0  0  0  0  0  0  0  0  0  0
   -1.0939   -1.4757    0.4017 H   0  0  0  0  0  0  0  0  0  0  0  0
   -4.3537   -1.1239   -1.1218 H   0  0  0  0  0  0  0  0  0  0  0  0
   -3.3374   -2.0830    0.0162 H   0  0  0  0  0  0  0  0  0  0  0  0
   -2.8437   -2.0117   -1.7238 H   0  0  0  0  0  0  0  0  0  0  0  0
  1  2  1  0
  1 11  1  0
  1 12  1  0
  1 13  1  0
  2  3  1  0
  2 14  1  0
  3  4  2  0
  3  5  1  0
  5  6  2  3
  5  7  1  0
  6 15  1  0
  6 16  1  0
  7  8  1  0
  7 17  1  0
  8  9  1  0
  8 10  2  0
  9 18  1  0
  9 19  1  0
  9 20  1  0
M  END

> <RosettaParamsInstructions>
M  ROOT 7
M  POLY_N_BB 7
M  POLY_CA_BB 5
M  POLY_C_BB 3
M  POLY_O_BB 4
M  POLY_IGNORE 1 10 9 14 11 12 13 18 19 20
M  POLY_UPPER 2
M  POLY_LOWER 8
M  POLY_CHG 0
M  POLY_PROPERTIES PROTEIN POLYMER ALPHA_AA ALIPHATIC
M  END

$$$$
DHA_new
     RDKit          3D

 20 19  0  0  0  0  0  0  0  0999 V2000
    2.6681   -1.0681    2.5896 C   0  0  0  0  0  0  0  0  0  0  0  0
    1.6757   -0.2529    1.8716 N   0  0  0  0  0  0  0  0  0  0  0  0
    0.5474   -0.8536    1.3041 C   0  0  0  0  0  0  0  0  0  0  0  0
    0.3779   -2.1179    1.4100 O   0  0  0  0  0  0  0  0  0  0  0  0
   -0.4594   -0.0615    0.5815 C   0  0  0  0  0  0  0  0  0  0  0  0
   -0.3041    1.2367    0.4618 C   0  0  0  0  0  0  0  0  0  0  0  0
   -1.5859   -0.7383    0.0274 N   0  0  0  0  0  0  0  0  0  0  0  0
   -2.6552   -0.1963   -0.6912 C   0  0  0  0  0  0  0  0  0  0  0  0
   -3.7189   -1.1767   -1.1589 C   0  0  0  0  0  0  0  0  0  0  0  0
   -2.7684    1.0043   -0.9534 O   0  0  0  0  0  0  0  0  0  0  0  0
    3.5673   -1.0690    1.9461 H   0  0  0  0  0  0  0  0  0  0  0  0
    2.8427   -0.5782    3.5556 H   0  0  0  0  0  0  0  0  0  0  0  0
    2.2890   -2.1075    2.6733 H   0  0  0  0  0  0  0  0  0  0  0  0
    1.8612    0.7500    1.8177 H   0  0  0  0  0  0  0  0  0  0  0  0
   -1.0116    1.8565   -0.0564 H   0  0  0  0  0  0  0  0  0  0  0  0
    0.5592    1.7563    0.8863 H   0  0  0  0  0  0  0  0  0  0  0  0
   -1.5575   -1.8018    0.2173 H   0  0  0  0  0  0  0  0  0  0  0  0
   -3.7712   -2.0169   -0.4353 H   0  0  0  0  0  0  0  0  0  0  0  0
   -3.4502   -1.5342   -2.1615 H   0  0  0  0  0  0  0  0  0  0  0  0
   -4.7124   -0.6831   -1.1445 H   0  0  0  0  0  0  0  0  0  0  0  0
  1  2  1  0
  1 11  1  0
  1 12  1  0
  1 13  1  0
  2  3  1  0
  2 14  1  0
  3  4  2  0
  3  5  1  0
  5  6  2  3
  5  7  1  0
  6 15  1  0
  6 16  1  0
  7  8  1  0
  7 17  1  0
  8  9  1  0
  8 10  2  0
  9 18  1  0
  9 19  1  0
  9 20  1  0
M  END

> <RosettaParamsInstructions>
M  ROOT 7
M  POLY_N_BB 7
M  POLY_CA_BB 5
M  POLY_C_BB 3
M  POLY_O_BB 4
M  POLY_IGNORE 1 10 9 14 11 12 13 18 19 20
M  POLY_UPPER 2
M  POLY_LOWER 8
M  POLY_CHG 0
M  POLY_PROPERTIES PROTEIN POLYMER ALPHA_AA ALIPHATIC
M  END

$$$$
DHA_new
     RDKit          3D

 20 19  0  0  0  0  0  0  0  0999 V2000
    2.6638   -1.0955    2.5329 C   0  0  0  0  0  0  0  0  0  0  0  0
    1.7103   -0.1819    1.8547 N   0  0  0  0  0  0  0  0  0  0  0  0
    0.5785   -0.8012    1.2865 C   0  0  0  0  0  0  0  0  0  0  0  0
    0.4119   -2.0641    1.3659 O   0  0  0  0  0  0  0  0  0  0  0  0
   -0.4586   -0.0282    0.5795 C   0  0  0  0  0  0  0  0  0  0  0  0
   -0.3177    1.2618    0.4815 C   0  0  0  0  0  0  0  0  0  0  0  0
   -1.5567   -0.7495    0.0451 N   0  0  0  0  0  0  0  0  0  0  0  0
   -2.6461   -0.2409   -0.6555 C   0  0  0  0  0  0  0  0  0  0  0  0
   -3.7158   -1.1790   -1.1433 C   0  0  0  0  0  0  0  0  0  0  0  0
   -2.8222    0.9616   -0.9245 O   0  0  0  0  0  0  0  0  0  0  0  0
    3.5812   -0.5622    2.7857 H   0  0  0  0  0  0  0  0  0  0  0  0
    2.1448   -1.4054    3.4800 H   0  0  0  0  0  0  0  0  0  0  0  0
    2.7854   -1.9655    1.8803 H   0  0  0  0  0  0  0  0  0  0  0  0
    1.9237    0.8332    1.8368 H   0  0  0  0  0  0  0  0  0  0  0  0
   -1.0513    1.8676   -0.0268 H   0  0  0  0  0  0  0  0  0  0  0  0
    0.5377    1.7525    0.9078 H   0  0  0  0  0  0  0  0  0  0  0  0
   -1.5673   -1.8211    0.1880 H   0  0  0  0  0  0  0  0  0  0  0  0
   -4.6835   -0.6825   -1.0351 H   0  0  0  0  0  0  0  0  0  0  0  0
   -3.4467   -1.4460   -2.1741 H   0  0  0  0  0  0  0  0  0  0  0  0
   -3.6778   -2.1059   -0.5245 H   0  0  0  0  0  0  0  0  0  0  0  0
  1  2  1  0
  1 11  1  0
  1 12  1  0
  1 13  1  0
  2  3  1  0
  2 14  1  0
  3  4  2  0
  3  5  1  0
  5  6  2  3
  5  7  1  0
  6 15  1  0
  6 16  1  0
  7  8  1  0
  7 17  1  0
  8  9  1  0
  8 10  2  0
  9 18  1  0
  9 19  1  0
  9 20  1  0
M  END

> <RosettaParamsInstructions>
M  ROOT 7
M  POLY_N_BB 7
M  POLY_CA_BB 5
M  POLY_C_BB 3
M  POLY_O_BB 4
M  POLY_IGNORE 1 10 9 14 11 12 13 18 19 20
M  POLY_UPPER 2
M  POLY_LOWER 8
M  POLY_CHG 0
M  POLY_PROPERTIES PROTEIN POLYMER ALPHA_AA ALIPHATIC
M  END

$$$$
DHA_new
     RDKit          3D

 20 19  0  0  0  0  0  0  0  0999 V2000
    2.7184   -1.0699    2.4802 C   0  0  0  0  0  0  0  0  0  0  0  0
    1.6916   -0.2199    1.8471 N   0  0  0  0  0  0  0  0  0  0  0  0
    0.5750   -0.8379    1.2567 C   0  0  0  0  0  0  0  0  0  0  0  0
    0.4708   -2.0998    1.2782 O   0  0  0  0  0  0  0  0  0  0  0  0
   -0.4676   -0.0564    0.6191 C   0  0  0  0  0  0  0  0  0  0  0  0
   -0.3708    1.2216    0.5924 C   0  0  0  0  0  0  0  0  0  0  0  0
   -1.5565   -0.7524    0.0492 N   0  0  0  0  0  0  0  0  0  0  0  0
   -2.6786   -0.2483   -0.6156 C   0  0  0  0  0  0  0  0  0  0  0  0
   -3.7535   -1.1519   -1.1644 C   0  0  0  0  0  0  0  0  0  0  0  0
   -2.8654    0.9671   -0.7983 O   0  0  0  0  0  0  0  0  0  0  0  0
    2.8593   -0.6330    3.5060 H   0  0  0  0  0  0  0  0  0  0  0  0
    2.3443   -2.0941    2.5357 H   0  0  0  0  0  0  0  0  0  0  0  0
    3.6646   -1.0281    1.9053 H   0  0  0  0  0  0  0  0  0  0  0  0
    1.9109    0.7897    1.9062 H   0  0  0  0  0  0  0  0  0  0  0  0
    0.4648    1.7389    1.0307 H   0  0  0  0  0  0  0  0  0  0  0  0
   -1.1084    1.8439    0.1369 H   0  0  0  0  0  0  0  0  0  0  0  0
   -1.5634   -1.8434    0.1148 H   0  0  0  0  0  0  0  0  0  0  0  0
   -4.4845   -1.3660   -0.3764 H   0  0  0  0  0  0  0  0  0  0  0  0
   -4.2062   -0.7127   -2.0672 H   0  0  0  0  0  0  0  0  0  0  0  0
   -3.2514   -2.0996   -1.4956 H   0  0  0  0  0  0  0  0  0  0  0  0
  1  2  1  0
  1 11  1  0
  1 12  1  0
  1 13  1  0
  2  3  1  0
  2 14  1  0
  3  4  2  0
  3  5  1  0
  5  6  2  3
  5  7  1  0
  6 15  1  0
  6 16  1  0
  7  8  1  0
  7 17  1  0
  8  9  1  0
  8 10  2  0
  9 18  1  0
  9 19  1  0
  9 20  1  0
M  END

> <RosettaParamsInstructions>
M  ROOT 7
M  POLY_N_BB 7
M  POLY_CA_BB 5
M  POLY_C_BB 3
M  POLY_O_BB 4
M  POLY_IGNORE 1 10 9 14 11 12 13 18 19 20
M  POLY_UPPER 2
M  POLY_LOWER 8
M  POLY_CHG 0
M  POLY_PROPERTIES PROTEIN POLYMER ALPHA_AA ALIPHATIC
M  END

$$$$
DHA_new
     RDKit          3D

 20 19  0  0  0  0  0  0  0  0999 V2000
    2.6635   -1.0596    2.5808 C   0  0  0  0  0  0  0  0  0  0  0  0
    1.7282   -0.2152    1.8155 N   0  0  0  0  0  0  0  0  0  0  0  0
    0.5605   -0.8101    1.3178 C   0  0  0  0  0  0  0  0  0  0  0  0
    0.3392   -2.0342    1.5320 O   0  0  0  0  0  0  0  0  0  0  0  0
   -0.4325   -0.0714    0.5489 C   0  0  0  0  0  0  0  0  0  0  0  0
   -0.2425    1.1910    0.3063 C   0  0  0  0  0  0  0  0  0  0  0  0
   -1.5781   -0.7420    0.0848 N   0  0  0  0  0  0  0  0  0  0  0  0
   -2.6533   -0.2476   -0.6629 C   0  0  0  0  0  0  0  0  0  0  0  0
   -3.7899   -1.1640   -1.0537 C   0  0  0  0  0  0  0  0  0  0  0  0
   -2.7446    0.9441   -1.0456 O   0  0  0  0  0  0  0  0  0  0  0  0
    3.2153   -1.7128    1.8729 H   0  0  0  0  0  0  0  0  0  0  0  0
    2.0087   -1.7230    3.1997 H   0  0  0  0  0  0  0  0  0  0  0  0
    3.3162   -0.4557    3.2121 H   0  0  0  0  0  0  0  0  0  0  0  0
    2.0007    0.7625    1.6986 H   0  0  0  0  0  0  0  0  0  0  0  0
    0.6645    1.6933    0.6817 H   0  0  0  0  0  0  0  0  0  0  0  0
   -0.9145    1.8453   -0.2568 H   0  0  0  0  0  0  0  0  0  0  0  0
   -1.6281   -1.7803    0.3447 H   0  0  0  0  0  0  0  0  0  0  0  0
   -4.7054   -0.7149   -0.6119 H   0  0  0  0  0  0  0  0  0  0  0  0
   -3.5977   -2.1779   -0.6559 H   0  0  0  0  0  0  0  0  0  0  0  0
   -3.8167   -1.1798   -2.1682 H   0  0  0  0  0  0  0  0  0  0  0  0
  1  2  1  0
  1 11  1  0
  1 12  1  0
  1 13  1  0
  2  3  1  0
  2 14  1  0
  3  4  2  0
  3  5  1  0
  5  6  2  3
  5  7  1  0
  6 15  1  0
  6 16  1  0
  7  8  1  0
  7 17  1  0
  8  9  1  0
  8 10  2  0
  9 18  1  0
  9 19  1  0
  9 20  1  0
M  END

> <RosettaParamsInstructions>
M  ROOT 7
M  POLY_N_BB 7
M  POLY_CA_BB 5
M  POLY_C_BB 3
M  POLY_O_BB 4
M  POLY_IGNORE 1 10 9 14 11 12 13 18 19 20
M  POLY_UPPER 2
M  POLY_LOWER 8
M  POLY_CHG 0
M  POLY_PROPERTIES PROTEIN POLYMER ALPHA_AA ALIPHATIC
M  END

$$$$
DHA_new
     RDKit          3D

 20 19  0  0  0  0  0  0  0  0999 V2000
    2.6698   -1.0538    2.5770 C   0  0  0  0  0  0  0  0  0  0  0  0
    1.6640   -0.2431    1.8506 N   0  0  0  0  0  0  0  0  0  0  0  0
    0.5303   -0.8236    1.2872 C   0  0  0  0  0  0  0  0  0  0  0  0
    0.3580   -2.0676    1.3992 O   0  0  0  0  0  0  0  0  0  0  0  0
   -0.4641   -0.0483    0.5736 C   0  0  0  0  0  0  0  0  0  0  0  0
   -0.2869    1.2447    0.4561 C   0  0  0  0  0  0  0  0  0  0  0  0
   -1.5781   -0.7728    0.0464 N   0  0  0  0  0  0  0  0  0  0  0  0
   -2.6605   -0.2419   -0.6769 C   0  0  0  0  0  0  0  0  0  0  0  0
   -3.7294   -1.2030   -1.1373 C   0  0  0  0  0  0  0  0  0  0  0  0
   -2.7676    0.9797   -0.9483 O   0  0  0  0  0  0  0  0  0  0  0  0
    2.4381   -1.0587    3.6514 H   0  0  0  0  0  0  0  0  0  0  0  0
    2.5666   -2.0856    2.1909 H   0  0  0  0  0  0  0  0  0  0  0  0
    3.6840   -0.6598    2.4028 H   0  0  0  0  0  0  0  0  0  0  0  0
    1.9109    0.7624    1.8230 H   0  0  0  0  0  0  0  0  0  0  0  0
   -0.9812    1.8849   -0.0591 H   0  0  0  0  0  0  0  0  0  0  0  0
    0.5686    1.7552    0.8688 H   0  0  0  0  0  0  0  0  0  0  0  0
   -1.6194   -1.8371    0.2041 H   0  0  0  0  0  0  0  0  0  0  0  0
   -3.8263   -1.9673   -0.3601 H   0  0  0  0  0  0  0  0  0  0  0  0
   -3.4187   -1.6036   -2.1280 H   0  0  0  0  0  0  0  0  0  0  0  0
   -4.6647   -0.6130   -1.2806 H   0  0  0  0  0  0  0  0  0  0  0  0
  1  2  1  0
  1 11  1  0
  1 12  1  0
  1 13  1  0
  2  3  1  0
  2 14  1  0
  3  4  2  0
  3  5  1  0
  5  6  2  3
  5  7  1  0
  6 15  1  0
  6 16  1  0
  7  8  1  0
  7 17  1  0
  8  9  1  0
  8 10  2  0
  9 18  1  0
  9 19  1  0
  9 20  1  0
M  END

> <RosettaParamsInstructions>
M  ROOT 7
M  POLY_N_BB 7
M  POLY_CA_BB 5
M  POLY_C_BB 3
M  POLY_O_BB 4
M  POLY_IGNORE 1 10 9 14 11 12 13 18 19 20
M  POLY_UPPER 2
M  POLY_LOWER 8
M  POLY_CHG 0
M  POLY_PROPERTIES PROTEIN POLYMER ALPHA_AA ALIPHATIC
M  END

$$$$
DHA_new
     RDKit          3D

 20 19  0  0  0  0  0  0  0  0999 V2000
    2.6758   -1.0553    2.5909 C   0  0  0  0  0  0  0  0  0  0  0  0
    1.6876   -0.2392    1.8718 N   0  0  0  0  0  0  0  0  0  0  0  0
    0.5506   -0.8210    1.3088 C   0  0  0  0  0  0  0  0  0  0  0  0
    0.3723   -2.0629    1.4205 O   0  0  0  0  0  0  0  0  0  0  0  0
   -0.4839   -0.0674    0.5735 C   0  0  0  0  0  0  0  0  0  0  0  0
   -0.2930    1.2244    0.4605 C   0  0  0  0  0  0  0  0  0  0  0  0
   -1.6049   -0.7665    0.0403 N   0  0  0  0  0  0  0  0  0  0  0  0
   -2.6689   -0.2329   -0.6740 C   0  0  0  0  0  0  0  0  0  0  0  0
   -3.7515   -1.1593   -1.1453 C   0  0  0  0  0  0  0  0  0  0  0  0
   -2.8063    0.9634   -0.9622 O   0  0  0  0  0  0  0  0  0  0  0  0
    2.2516   -2.0618    2.7772 H   0  0  0  0  0  0  0  0  0  0  0  0
    3.5456   -1.1780    1.9318 H   0  0  0  0  0  0  0  0  0  0  0  0
    2.9847   -0.5476    3.5186 H   0  0  0  0  0  0  0  0  0  0  0  0
    1.9259    0.7672    1.8361 H   0  0  0  0  0  0  0  0  0  0  0  0
    0.5580    1.7269    0.8703 H   0  0  0  0  0  0  0  0  0  0  0  0
   -1.0003    1.8338   -0.0586 H   0  0  0  0  0  0  0  0  0  0  0  0
   -1.6078   -1.8203    0.2218 H   0  0  0  0  0  0  0  0  0  0  0  0
   -4.7049   -0.6088   -1.2709 H   0  0  0  0  0  0  0  0  0  0  0  0
   -3.4233   -1.5528   -2.1271 H   0  0  0  0  0  0  0  0  0  0  0  0
   -3.8139   -1.9941   -0.4432 H   0  0  0  0  0  0  0  0  0  0  0  0
  1  2  1  0
  1 11  1  0
  1 12  1  0
  1 13  1  0
  2  3  1  0
  2 14  1  0
  3  4  2  0
  3  5  1  0
  5  6  2  3
  5  7  1  0
  6 15  1  0
  6 16  1  0
  7  8  1  0
  7 17  1  0
  8  9  1  0
  8 10  2  0
  9 18  1  0
  9 19  1  0
  9 20  1  0
M  END

> <RosettaParamsInstructions>
M  ROOT 7
M  POLY_N_BB 7
M  POLY_CA_BB 5
M  POLY_C_BB 3
M  POLY_O_BB 4
M  POLY_IGNORE 1 10 9 14 11 12 13 18 19 20
M  POLY_UPPER 2
M  POLY_LOWER 8
M  POLY_CHG 0
M  POLY_PROPERTIES PROTEIN POLYMER ALPHA_AA ALIPHATIC
M  END

$$$$
DHA_new
     RDKit          3D

 20 19  0  0  0  0  0  0  0  0999 V2000
    2.6479   -1.0966    2.5829 C   0  0  0  0  0  0  0  0  0  0  0  0
    1.7092   -0.2076    1.8840 N   0  0  0  0  0  0  0  0  0  0  0  0
    0.5727   -0.7801    1.3019 C   0  0  0  0  0  0  0  0  0  0  0  0
    0.4151   -2.0411    1.4101 O   0  0  0  0  0  0  0  0  0  0  0  0
   -0.4717   -0.0437    0.5650 C   0  0  0  0  0  0  0  0  0  0  0  0
   -0.3622    1.2553    0.4223 C   0  0  0  0  0  0  0  0  0  0  0  0
   -1.5813   -0.7359    0.0187 N   0  0  0  0  0  0  0  0  0  0  0  0
   -2.6487   -0.2066   -0.6975 C   0  0  0  0  0  0  0  0  0  0  0  0
   -3.7077   -1.1886   -1.1669 C   0  0  0  0  0  0  0  0  0  0  0  0
   -2.8279    0.9777   -0.9929 O   0  0  0  0  0  0  0  0  0  0  0  0
    3.6813   -0.7970    2.3003 H   0  0  0  0  0  0  0  0  0  0  0  0
    2.5273   -1.0230    3.6747 H   0  0  0  0  0  0  0  0  0  0  0  0
    2.4746   -2.1488    2.2884 H   0  0  0  0  0  0  0  0  0  0  0  0
    1.9414    0.8246    1.8567 H   0  0  0  0  0  0  0  0  0  0  0  0
    0.5270    1.7409    0.8719 H   0  0  0  0  0  0  0  0  0  0  0  0
   -1.0797    1.8601   -0.0997 H   0  0  0  0  0  0  0  0  0  0  0  0
   -1.5556   -1.8003    0.2033 H   0  0  0  0  0  0  0  0  0  0  0  0
   -4.6156   -0.6573   -1.4474 H   0  0  0  0  0  0  0  0  0  0  0  0
   -3.9519   -1.7919   -0.2604 H   0  0  0  0  0  0  0  0  0  0  0  0
   -3.3006   -1.7923   -1.9746 H   0  0  0  0  0  0  0  0  0  0  0  0
  1  2  1  0
  1 11  1  0
  1 12  1  0
  1 13  1  0
  2  3  1  0
  2 14  1  0
  3  4  2  0
  3  5  1  0
  5  6  2  3
  5  7  1  0
  6 15  1  0
  6 16  1  0
  7  8  1  0
  7 17  1  0
  8  9  1  0
  8 10  2  0
  9 18  1  0
  9 19  1  0
  9 20  1  0
M  END

> <RosettaParamsInstructions>
M  ROOT 7
M  POLY_N_BB 7
M  POLY_CA_BB 5
M  POLY_C_BB 3
M  POLY_O_BB 4
M  POLY_IGNORE 1 10 9 14 11 12 13 18 19 20
M  POLY_UPPER 2
M  POLY_LOWER 8
M  POLY_CHG 0
M  POLY_PROPERTIES PROTEIN POLYMER ALPHA_AA ALIPHATIC
M  END

$$$$
DHA_new
     RDKit          3D

 20 19  0  0  0  0  0  0  0  0999 V2000
    2.6551   -1.0841    2.5615 C   0  0  0  0  0  0  0  0  0  0  0  0
    1.7138   -0.2245    1.7947 N   0  0  0  0  0  0  0  0  0  0  0  0
    0.5384   -0.8014    1.2929 C   0  0  0  0  0  0  0  0  0  0  0  0
    0.3140   -2.0231    1.5041 O   0  0  0  0  0  0  0  0  0  0  0  0
   -0.4429   -0.0486    0.5331 C   0  0  0  0  0  0  0  0  0  0  0  0
   -0.2356    1.2217    0.2989 C   0  0  0  0  0  0  0  0  0  0  0  0
   -1.5916   -0.7484    0.0803 N   0  0  0  0  0  0  0  0  0  0  0  0
   -2.6550   -0.2187   -0.6642 C   0  0  0  0  0  0  0  0  0  0  0  0
   -3.7712   -1.1840   -1.0254 C   0  0  0  0  0  0  0  0  0  0  0  0
   -2.7531    0.9819   -1.0510 O   0  0  0  0  0  0  0  0  0  0  0  0
    2.8917   -1.9971    2.0131 H   0  0  0  0  0  0  0  0  0  0  0  0
    2.1473   -1.4012    3.5186 H   0  0  0  0  0  0  0  0  0  0  0  0
    3.5458   -0.5284    2.8527 H   0  0  0  0  0  0  0  0  0  0  0  0
    1.9759    0.7663    1.6685 H   0  0  0  0  0  0  0  0  0  0  0  0
    0.6566    1.7104    0.6657 H   0  0  0  0  0  0  0  0  0  0  0  0
   -0.9003    1.8796   -0.2567 H   0  0  0  0  0  0  0  0  0  0  0  0
   -1.6448   -1.7825    0.3359 H   0  0  0  0  0  0  0  0  0  0  0  0
   -4.7075   -0.6072   -1.1735 H   0  0  0  0  0  0  0  0  0  0  0  0
   -3.4814   -1.6375   -1.9916 H   0  0  0  0  0  0  0  0  0  0  0  0
   -3.8616   -1.9256   -0.2167 H   0  0  0  0  0  0  0  0  0  0  0  0
  1  2  1  0
  1 11  1  0
  1 12  1  0
  1 13  1  0
  2  3  1  0
  2 14  1  0
  3  4  2  0
  3  5  1  0
  5  6  2  3
  5  7  1  0
  6 15  1  0
  6 16  1  0
  7  8  1  0
  7 17  1  0
  8  9  1  0
  8 10  2  0
  9 18  1  0
  9 19  1  0
  9 20  1  0
M  END

> <RosettaParamsInstructions>
M  ROOT 7
M  POLY_N_BB 7
M  POLY_CA_BB 5
M  POLY_C_BB 3
M  POLY_O_BB 4
M  POLY_IGNORE 1 10 9 14 11 12 13 18 19 20
M  POLY_UPPER 2
M  POLY_LOWER 8
M  POLY_CHG 0
M  POLY_PROPERTIES PROTEIN POLYMER ALPHA_AA ALIPHATIC
M  END

$$$$
DHA_new
     RDKit          3D

 20 19  0  0  0  0  0  0  0  0999 V2000
    2.6976   -1.0489    2.5654 C   0  0  0  0  0  0  0  0  0  0  0  0
    1.6905   -0.2473    1.8463 N   0  0  0  0  0  0  0  0  0  0  0  0
    0.5544   -0.8487    1.2893 C   0  0  0  0  0  0  0  0  0  0  0  0
    0.3807   -2.1074    1.4012 O   0  0  0  0  0  0  0  0  0  0  0  0
   -0.4424   -0.0650    0.5791 C   0  0  0  0  0  0  0  0  0  0  0  0
   -0.2772    1.2110    0.4592 C   0  0  0  0  0  0  0  0  0  0  0  0
   -1.5577   -0.7858    0.0543 N   0  0  0  0  0  0  0  0  0  0  0  0
   -2.6448   -0.2626   -0.6643 C   0  0  0  0  0  0  0  0  0  0  0  0
   -3.7615   -1.1445   -1.1626 C   0  0  0  0  0  0  0  0  0  0  0  0
   -2.8019    0.9467   -0.9597 O   0  0  0  0  0  0  0  0  0  0  0  0
    2.5510   -0.7698    3.6430 H   0  0  0  0  0  0  0  0  0  0  0  0
    2.5048   -2.1234    2.4394 H   0  0  0  0  0  0  0  0  0  0  0  0
    3.7210   -0.7556    2.2877 H   0  0  0  0  0  0  0  0  0  0  0  0
    1.8947    0.7518    1.7959 H   0  0  0  0  0  0  0  0  0  0  0  0
    0.5658    1.7185    0.8621 H   0  0  0  0  0  0  0  0  0  0  0  0
   -0.9909    1.8180   -0.0570 H   0  0  0  0  0  0  0  0  0  0  0  0
   -1.6106   -1.8500    0.2035 H   0  0  0  0  0  0  0  0  0  0  0  0
   -4.7090   -0.7014   -0.8429 H   0  0  0  0  0  0  0  0  0  0  0  0
   -3.6744   -2.1641   -0.7377 H   0  0  0  0  0  0  0  0  0  0  0  0
   -3.6966   -1.2237   -2.2611 H   0  0  0  0  0  0  0  0  0  0  0  0
  1  2  1  0
  1 11  1  0
  1 12  1  0
  1 13  1  0
  2  3  1  0
  2 14  1  0
  3  4  2  0
  3  5  1  0
  5  6  2  3
  5  7  1  0
  6 15  1  0
  6 16  1  0
  7  8  1  0
  7 17  1  0
  8  9  1  0
  8 10  2  0
  9 18  1  0
  9 19  1  0
  9 20  1  0
M  END

> <RosettaParamsInstructions>
M  ROOT 7
M  POLY_N_BB 7
M  POLY_CA_BB 5
M  POLY_C_BB 3
M  POLY_O_BB 4
M  POLY_IGNORE 1 10 9 14 11 12 13 18 19 20
M  POLY_UPPER 2
M  POLY_LOWER 8
M  POLY_CHG 0
M  POLY_PROPERTIES PROTEIN POLYMER ALPHA_AA ALIPHATIC
M  END

$$$$
DHA_new
     RDKit          3D

 20 19  0  0  0  0  0  0  0  0999 V2000
    2.6530   -1.0696    2.5835 C   0  0  0  0  0  0  0  0  0  0  0  0
    1.7301   -0.1935    1.8172 N   0  0  0  0  0  0  0  0  0  0  0  0
    0.5781   -0.8166    1.3337 C   0  0  0  0  0  0  0  0  0  0  0  0
    0.3372   -2.0592    1.5390 O   0  0  0  0  0  0  0  0  0  0  0  0
   -0.4341   -0.0739    0.5533 C   0  0  0  0  0  0  0  0  0  0  0  0
   -0.2149    1.1964    0.3279 C   0  0  0  0  0  0  0  0  0  0  0  0
   -1.5832   -0.7527    0.0869 N   0  0  0  0  0  0  0  0  0  0  0  0
   -2.6486   -0.2527   -0.6568 C   0  0  0  0  0  0  0  0  0  0  0  0
   -3.8052   -1.1383   -1.0704 C   0  0  0  0  0  0  0  0  0  0  0  0
   -2.7717    0.9313   -1.0531 O   0  0  0  0  0  0  0  0  0  0  0  0
    3.2833   -1.5838    1.8513 H   0  0  0  0  0  0  0  0  0  0  0  0
    2.0554   -1.8236    3.1354 H   0  0  0  0  0  0  0  0  0  0  0  0
    3.2598   -0.4482    3.2909 H   0  0  0  0  0  0  0  0  0  0  0  0
    1.9727    0.8005    1.6813 H   0  0  0  0  0  0  0  0  0  0  0  0
    0.6567    1.7048    0.6835 H   0  0  0  0  0  0  0  0  0  0  0  0
   -0.9214    1.7718   -0.2325 H   0  0  0  0  0  0  0  0  0  0  0  0
   -1.6305   -1.7923    0.3465 H   0  0  0  0  0  0  0  0  0  0  0  0
   -4.5877   -0.9783   -0.3076 H   0  0  0  0  0  0  0  0  0  0  0  0
   -3.4078   -2.1738   -1.0761 H   0  0  0  0  0  0  0  0  0  0  0  0
   -4.1276   -0.9005   -2.0930 H   0  0  0  0  0  0  0  0  0  0  0  0
  1  2  1  0
  1 11  1  0
  1 12  1  0
  1 13  1  0
  2  3  1  0
  2 14  1  0
  3  4  2  0
  3  5  1  0
  5  6  2  3
  5  7  1  0
  6 15  1  0
  6 16  1  0
  7  8  1  0
  7 17  1  0
  8  9  1  0
  8 10  2  0
  9 18  1  0
  9 19  1  0
  9 20  1  0
M  END

> <RosettaParamsInstructions>
M  ROOT 7
M  POLY_N_BB 7
M  POLY_CA_BB 5
M  POLY_C_BB 3
M  POLY_O_BB 4
M  POLY_IGNORE 1 10 9 14 11 12 13 18 19 20
M  POLY_UPPER 2
M  POLY_LOWER 8
M  POLY_CHG 0
M  POLY_PROPERTIES PROTEIN POLYMER ALPHA_AA ALIPHATIC
M  END

$$$$
DHA_new
     RDKit          3D

 20 19  0  0  0  0  0  0  0  0999 V2000
    2.6597   -1.0612    2.5630 C   0  0  0  0  0  0  0  0  0  0  0  0
    1.6687   -0.2516    1.8510 N   0  0  0  0  0  0  0  0  0  0  0  0
    0.5448   -0.8312    1.2896 C   0  0  0  0  0  0  0  0  0  0  0  0
    0.4067   -2.0995    1.4172 O   0  0  0  0  0  0  0  0  0  0  0  0
   -0.4628   -0.0596    0.5742 C   0  0  0  0  0  0  0  0  0  0  0  0
   -0.3214    1.2281    0.4454 C   0  0  0  0  0  0  0  0  0  0  0  0
   -1.5707   -0.7764    0.0447 N   0  0  0  0  0  0  0  0  0  0  0  0
   -2.6446   -0.2402   -0.6708 C   0  0  0  0  0  0  0  0  0  0  0  0
   -3.7338   -1.1764   -1.1534 C   0  0  0  0  0  0  0  0  0  0  0  0
   -2.7541    0.9689   -0.9333 O   0  0  0  0  0  0  0  0  0  0  0  0
    3.6523   -0.7242    2.2139 H   0  0  0  0  0  0  0  0  0  0  0  0
    2.5470   -0.9018    3.6631 H   0  0  0  0  0  0  0  0  0  0  0  0
    2.5108   -2.1437    2.3669 H   0  0  0  0  0  0  0  0  0  0  0  0
    1.8728    0.7511    1.8057 H   0  0  0  0  0  0  0  0  0  0  0  0
    0.5508    1.7562    0.8682 H   0  0  0  0  0  0  0  0  0  0  0  0
   -0.9966    1.9132   -0.0616 H   0  0  0  0  0  0  0  0  0  0  0  0
   -1.5926   -1.8329    0.2054 H   0  0  0  0  0  0  0  0  0  0  0  0
   -4.5210   -1.1647   -0.3723 H   0  0  0  0  0  0  0  0  0  0  0  0
   -3.3707   -2.2023   -1.2492 H   0  0  0  0  0  0  0  0  0  0  0  0
   -4.0515   -0.8042   -2.1269 H   0  0  0  0  0  0  0  0  0  0  0  0
  1  2  1  0
  1 11  1  0
  1 12  1  0
  1 13  1  0
  2  3  1  0
  2 14  1  0
  3  4  2  0
  3  5  1  0
  5  6  2  3
  5  7  1  0
  6 15  1  0
  6 16  1  0
  7  8  1  0
  7 17  1  0
  8  9  1  0
  8 10  2  0
  9 18  1  0
  9 19  1  0
  9 20  1  0
M  END

> <RosettaParamsInstructions>
M  ROOT 7
M  POLY_N_BB 7
M  POLY_CA_BB 5
M  POLY_C_BB 3
M  POLY_O_BB 4
M  POLY_IGNORE 1 10 9 14 11 12 13 18 19 20
M  POLY_UPPER 2
M  POLY_LOWER 8
M  POLY_CHG 0
M  POLY_PROPERTIES PROTEIN POLYMER ALPHA_AA ALIPHATIC
M  END

$$$$
DHA_new
     RDKit          3D

 20 19  0  0  0  0  0  0  0  0999 V2000
    2.6500   -1.0779    2.5658 C   0  0  0  0  0  0  0  0  0  0  0  0
    1.6691   -0.2351    1.8525 N   0  0  0  0  0  0  0  0  0  0  0  0
    0.5467   -0.8361    1.2984 C   0  0  0  0  0  0  0  0  0  0  0  0
    0.3889   -2.0774    1.4142 O   0  0  0  0  0  0  0  0  0  0  0  0
   -0.4775   -0.0685    0.5724 C   0  0  0  0  0  0  0  0  0  0  0  0
   -0.3390    1.2336    0.4351 C   0  0  0  0  0  0  0  0  0  0  0  0
   -1.5658   -0.8000    0.0600 N   0  0  0  0  0  0  0  0  0  0  0  0
   -2.6146   -0.2230   -0.6485 C   0  0  0  0  0  0  0  0  0  0  0  0
   -3.7108   -1.1683   -1.1297 C   0  0  0  0  0  0  0  0  0  0  0  0
   -2.7766    0.9724   -0.9431 O   0  0  0  0  0  0  0  0  0  0  0  0
    2.5244   -2.1287    2.2515 H   0  0  0  0  0  0  0  0  0  0  0  0
    3.6732   -0.7439    2.3149 H   0  0  0  0  0  0  0  0  0  0  0  0
    2.4725   -0.9257    3.6489 H   0  0  0  0  0  0  0  0  0  0  0  0
    1.8901    0.7628    1.8143 H   0  0  0  0  0  0  0  0  0  0  0  0
    0.5319    1.7542    0.8560 H   0  0  0  0  0  0  0  0  0  0  0  0
   -1.0194    1.8816   -0.0704 H   0  0  0  0  0  0  0  0  0  0  0  0
   -1.5783   -1.8500    0.2285 H   0  0  0  0  0  0  0  0  0  0  0  0
   -4.6583   -0.6292   -1.2483 H   0  0  0  0  0  0  0  0  0  0  0  0
   -3.3804   -1.5102   -2.1319 H   0  0  0  0  0  0  0  0  0  0  0  0
   -3.8329   -1.9827   -0.3995 H   0  0  0  0  0  0  0  0  0  0  0  0
  1  2  1  0
  1 11  1  0
  1 12  1  0
  1 13  1  0
  2  3  1  0
  2 14  1  0
  3  4  2  0
  3  5  1  0
  5  6  2  3
  5  7  1  0
  6 15  1  0
  6 16  1  0
  7  8  1  0
  7 17  1  0
  8  9  1  0
  8 10  2  0
  9 18  1  0
  9 19  1  0
  9 20  1  0
M  END

> <RosettaParamsInstructions>
M  ROOT 7
M  POLY_N_BB 7
M  POLY_CA_BB 5
M  POLY_C_BB 3
M  POLY_O_BB 4
M  POLY_IGNORE 1 10 9 14 11 12 13 18 19 20
M  POLY_UPPER 2
M  POLY_LOWER 8
M  POLY_CHG 0
M  POLY_PROPERTIES PROTEIN POLYMER ALPHA_AA ALIPHATIC
M  END

$$$$
DHA_new
     RDKit          3D

 20 19  0  0  0  0  0  0  0  0999 V2000
    2.6590   -1.0633    2.6297 C   0  0  0  0  0  0  0  0  0  0  0  0
    1.6962   -0.2460    1.8881 N   0  0  0  0  0  0  0  0  0  0  0  0
    0.5471   -0.8174    1.3185 C   0  0  0  0  0  0  0  0  0  0  0  0
    0.3607   -2.0583    1.4603 O   0  0  0  0  0  0  0  0  0  0  0  0
   -0.4788   -0.0724    0.5540 C   0  0  0  0  0  0  0  0  0  0  0  0
   -0.2978    1.2208    0.3983 C   0  0  0  0  0  0  0  0  0  0  0  0
   -1.5927   -0.7699    0.0310 N   0  0  0  0  0  0  0  0  0  0  0  0
   -2.6464   -0.2238   -0.7097 C   0  0  0  0  0  0  0  0  0  0  0  0
   -3.7340   -1.1586   -1.1687 C   0  0  0  0  0  0  0  0  0  0  0  0
   -2.7561    0.9700   -1.0188 O   0  0  0  0  0  0  0  0  0  0  0  0
    3.3557   -1.4750    1.8673 H   0  0  0  0  0  0  0  0  0  0  0  0
    3.2416   -0.4528    3.3242 H   0  0  0  0  0  0  0  0  0  0  0  0
    2.0991   -1.8551    3.1562 H   0  0  0  0  0  0  0  0  0  0  0  0
    1.9144    0.7647    1.8123 H   0  0  0  0  0  0  0  0  0  0  0  0
   -0.9731    1.8612   -0.1357 H   0  0  0  0  0  0  0  0  0  0  0  0
    0.5670    1.7440    0.8079 H   0  0  0  0  0  0  0  0  0  0  0  0
   -1.6034   -1.8268    0.2402 H   0  0  0  0  0  0  0  0  0  0  0  0
   -4.5847   -0.6164   -1.5780 H   0  0  0  0  0  0  0  0  0  0  0  0
   -3.2940   -1.8757   -1.8672 H   0  0  0  0  0  0  0  0  0  0  0  0
   -4.0866   -1.7016   -0.2688 H   0  0  0  0  0  0  0  0  0  0  0  0
  1  2  1  0
  1 11  1  0
  1 12  1  0
  1 13  1  0
  2  3  1  0
  2 14  1  0
  3  4  2  0
  3  5  1  0
  5  6  2  3
  5  7  1  0
  6 15  1  0
  6 16  1  0
  7  8  1  0
  7 17  1  0
  8  9  1  0
  8 10  2  0
  9 18  1  0
  9 19  1  0
  9 20  1  0
M  END

> <RosettaParamsInstructions>
M  ROOT 7
M  POLY_N_BB 7
M  POLY_CA_BB 5
M  POLY_C_BB 3
M  POLY_O_BB 4
M  POLY_IGNORE 1 10 9 14 11 12 13 18 19 20
M  POLY_UPPER 2
M  POLY_LOWER 8
M  POLY_CHG 0
M  POLY_PROPERTIES PROTEIN POLYMER ALPHA_AA ALIPHATIC
M  END

$$$$
DHA_new
     RDKit          3D

 20 19  0  0  0  0  0  0  0  0999 V2000
    2.7078   -1.0950    2.4934 C   0  0  0  0  0  0  0  0  0  0  0  0
    1.7115   -0.2413    1.8155 N   0  0  0  0  0  0  0  0  0  0  0  0
    0.5778   -0.8452    1.2751 C   0  0  0  0  0  0  0  0  0  0  0  0
    0.4297   -2.0908    1.3755 O   0  0  0  0  0  0  0  0  0  0  0  0
   -0.4580   -0.0529    0.5843 C   0  0  0  0  0  0  0  0  0  0  0  0
   -0.3051    1.2449    0.4788 C   0  0  0  0  0  0  0  0  0  0  0  0
   -1.5856   -0.7270    0.0576 N   0  0  0  0  0  0  0  0  0  0  0  0
   -2.6823   -0.2216   -0.6249 C   0  0  0  0  0  0  0  0  0  0  0  0
   -3.7684   -1.1746   -1.0877 C   0  0  0  0  0  0  0  0  0  0  0  0
   -2.8086    0.9936   -0.8732 O   0  0  0  0  0  0  0  0  0  0  0  0
    2.5753   -2.1528    2.1771 H   0  0  0  0  0  0  0  0  0  0  0  0
    2.5158   -1.0463    3.5693 H   0  0  0  0  0  0  0  0  0  0  0  0
    3.6877   -0.6917    2.2309 H   0  0  0  0  0  0  0  0  0  0  0  0
    1.9038    0.7739    1.7733 H   0  0  0  0  0  0  0  0  0  0  0  0
   -1.0219    1.8868   -0.0129 H   0  0  0  0  0  0  0  0  0  0  0  0
    0.5504    1.7906    0.8734 H   0  0  0  0  0  0  0  0  0  0  0  0
   -1.5575   -1.7975    0.2301 H   0  0  0  0  0  0  0  0  0  0  0  0
   -4.1775   -1.6698   -0.2075 H   0  0  0  0  0  0  0  0  0  0  0  0
   -4.5497   -0.6151   -1.6124 H   0  0  0  0  0  0  0  0  0  0  0  0
   -3.3517   -1.9203   -1.7749 H   0  0  0  0  0  0  0  0  0  0  0  0
  1  2  1  0
  1 11  1  0
  1 12  1  0
  1 13  1  0
  2  3  1  0
  2 14  1  0
  3  4  2  0
  3  5  1  0
  5  6  2  3
  5  7  1  0
  6 15  1  0
  6 16  1  0
  7  8  1  0
  7 17  1  0
  8  9  1  0
  8 10  2  0
  9 18  1  0
  9 19  1  0
  9 20  1  0
M  END

> <RosettaParamsInstructions>
M  ROOT 7
M  POLY_N_BB 7
M  POLY_CA_BB 5
M  POLY_C_BB 3
M  POLY_O_BB 4
M  POLY_IGNORE 1 10 9 14 11 12 13 18 19 20
M  POLY_UPPER 2
M  POLY_LOWER 8
M  POLY_CHG 0
M  POLY_PROPERTIES PROTEIN POLYMER ALPHA_AA ALIPHATIC
M  END

$$$$
DHA_new
     RDKit          3D

 20 19  0  0  0  0  0  0  0  0999 V2000
    2.6746   -1.0583    2.5773 C   0  0  0  0  0  0  0  0  0  0  0  0
    1.6708   -0.2551    1.8573 N   0  0  0  0  0  0  0  0  0  0  0  0
    0.5396   -0.8534    1.2900 C   0  0  0  0  0  0  0  0  0  0  0  0
    0.4121   -2.1041    1.4181 O   0  0  0  0  0  0  0  0  0  0  0  0
   -0.4654   -0.0937    0.5764 C   0  0  0  0  0  0  0  0  0  0  0  0
   -0.3028    1.2077    0.4606 C   0  0  0  0  0  0  0  0  0  0  0  0
   -1.5684   -0.8067    0.0443 N   0  0  0  0  0  0  0  0  0  0  0  0
   -2.6406   -0.2600   -0.6742 C   0  0  0  0  0  0  0  0  0  0  0  0
   -3.7468   -1.1411   -1.1809 C   0  0  0  0  0  0  0  0  0  0  0  0
   -2.7604    0.9412   -0.9395 O   0  0  0  0  0  0  0  0  0  0  0  0
    2.2880   -2.0852    2.7278 H   0  0  0  0  0  0  0  0  0  0  0  0
    3.6273   -1.0370    2.0174 H   0  0  0  0  0  0  0  0  0  0  0  0
    2.8459   -0.5707    3.5566 H   0  0  0  0  0  0  0  0  0  0  0  0
    1.8995    0.7619    1.8266 H   0  0  0  0  0  0  0  0  0  0  0  0
   -0.9863    1.8853   -0.0508 H   0  0  0  0  0  0  0  0  0  0  0  0
    0.5599    1.7481    0.8797 H   0  0  0  0  0  0  0  0  0  0  0  0
   -1.5730   -1.8658    0.2134 H   0  0  0  0  0  0  0  0  0  0  0  0
   -3.5744   -1.3674   -2.2401 H   0  0  0  0  0  0  0  0  0  0  0  0
   -4.7042   -0.6067   -1.0063 H   0  0  0  0  0  0  0  0  0  0  0  0
   -3.8017   -2.0912   -0.6127 H   0  0  0  0  0  0  0  0  0  0  0  0
  1  2  1  0
  1 11  1  0
  1 12  1  0
  1 13  1  0
  2  3  1  0
  2 14  1  0
  3  4  2  0
  3  5  1  0
  5  6  2  3
  5  7  1  0
  6 15  1  0
  6 16  1  0
  7  8  1  0
  7 17  1  0
  8  9  1  0
  8 10  2  0
  9 18  1  0
  9 19  1  0
  9 20  1  0
M  END

> <RosettaParamsInstructions>
M  ROOT 7
M  POLY_N_BB 7
M  POLY_CA_BB 5
M  POLY_C_BB 3
M  POLY_O_BB 4
M  POLY_IGNORE 1 10 9 14 11 12 13 18 19 20
M  POLY_UPPER 2
M  POLY_LOWER 8
M  POLY_CHG 0
M  POLY_PROPERTIES PROTEIN POLYMER ALPHA_AA ALIPHATIC
M  END

$$$$
DHA_new
     RDKit          3D

 20 19  0  0  0  0  0  0  0  0999 V2000
    2.6734   -1.0687    2.5686 C   0  0  0  0  0  0  0  0  0  0  0  0
    1.6926   -0.2096    1.8627 N   0  0  0  0  0  0  0  0  0  0  0  0
    0.5758   -0.8431    1.3007 C   0  0  0  0  0  0  0  0  0  0  0  0
    0.4259   -2.0791    1.3978 O   0  0  0  0  0  0  0  0  0  0  0  0
   -0.4586   -0.0901    0.5792 C   0  0  0  0  0  0  0  0  0  0  0  0
   -0.3546    1.2084    0.4456 C   0  0  0  0  0  0  0  0  0  0  0  0
   -1.5625   -0.7870    0.0343 N   0  0  0  0  0  0  0  0  0  0  0  0
   -2.6250   -0.2431   -0.6723 C   0  0  0  0  0  0  0  0  0  0  0  0
   -3.7173   -1.1645   -1.1767 C   0  0  0  0  0  0  0  0  0  0  0  0
   -2.7614    0.9557   -0.9324 O   0  0  0  0  0  0  0  0  0  0  0  0
    2.2712   -1.1786    3.6004 H   0  0  0  0  0  0  0  0  0  0  0  0
    2.7755   -2.0442    2.0554 H   0  0  0  0  0  0  0  0  0  0  0  0
    3.6551   -0.5646    2.6082 H   0  0  0  0  0  0  0  0  0  0  0  0
    1.9168    0.8122    1.8414 H   0  0  0  0  0  0  0  0  0  0  0  0
   -1.0359    1.8642   -0.0536 H   0  0  0  0  0  0  0  0  0  0  0  0
    0.5165    1.7464    0.8774 H   0  0  0  0  0  0  0  0  0  0  0  0
   -1.5678   -1.8599    0.1921 H   0  0  0  0  0  0  0  0  0  0  0  0
   -3.3877   -2.2051   -1.1989 H   0  0  0  0  0  0  0  0  0  0  0  0
   -4.5406   -1.0727   -0.4397 H   0  0  0  0  0  0  0  0  0  0  0  0
   -4.0978   -0.8289   -2.1491 H   0  0  0  0  0  0  0  0  0  0  0  0
  1  2  1  0
  1 11  1  0
  1 12  1  0
  1 13  1  0
  2  3  1  0
  2 14  1  0
  3  4  2  0
  3  5  1  0
  5  6  2  3
  5  7  1  0
  6 15  1  0
  6 16  1  0
  7  8  1  0
  7 17  1  0
  8  9  1  0
  8 10  2  0
  9 18  1  0
  9 19  1  0
  9 20  1  0
M  END

> <RosettaParamsInstructions>
M  ROOT 7
M  POLY_N_BB 7
M  POLY_CA_BB 5
M  POLY_C_BB 3
M  POLY_O_BB 4
M  POLY_IGNORE 1 10 9 14 11 12 13 18 19 20
M  POLY_UPPER 2
M  POLY_LOWER 8
M  POLY_CHG 0
M  POLY_PROPERTIES PROTEIN POLYMER ALPHA_AA ALIPHATIC
M  END

$$$$
DHA_new
     RDKit          3D

 20 19  0  0  0  0  0  0  0  0999 V2000
    2.6793   -1.0899    2.5458 C   0  0  0  0  0  0  0  0  0  0  0  0
    1.6782   -0.2578    1.8583 N   0  0  0  0  0  0  0  0  0  0  0  0
    0.5524   -0.8303    1.2700 C   0  0  0  0  0  0  0  0  0  0  0  0
    0.4164   -2.0743    1.3430 O   0  0  0  0  0  0  0  0  0  0  0  0
   -0.4572   -0.0251    0.5807 C   0  0  0  0  0  0  0  0  0  0  0  0
   -0.3336    1.2703    0.4941 C   0  0  0  0  0  0  0  0  0  0  0  0
   -1.5494   -0.7646    0.0325 N   0  0  0  0  0  0  0  0  0  0  0  0
   -2.6423   -0.2441   -0.6705 C   0  0  0  0  0  0  0  0  0  0  0  0
   -3.7038   -1.1979   -1.1745 C   0  0  0  0  0  0  0  0  0  0  0  0
   -2.7814    0.9735   -0.9012 O   0  0  0  0  0  0  0  0  0  0  0  0
    3.6888   -0.6520    2.4144 H   0  0  0  0  0  0  0  0  0  0  0  0
    2.4384   -1.0501    3.6274 H   0  0  0  0  0  0  0  0  0  0  0  0
    2.5850   -2.0999    2.1087 H   0  0  0  0  0  0  0  0  0  0  0  0
    1.8523    0.7564    1.8357 H   0  0  0  0  0  0  0  0  0  0  0  0
   -1.0484    1.8799    0.0012 H   0  0  0  0  0  0  0  0  0  0  0  0
    0.5142    1.7649    0.9293 H   0  0  0  0  0  0  0  0  0  0  0  0
   -1.5572   -1.8327    0.1589 H   0  0  0  0  0  0  0  0  0  0  0  0
   -4.6751   -0.6975   -0.8974 H   0  0  0  0  0  0  0  0  0  0  0  0
   -3.6083   -1.3611   -2.2494 H   0  0  0  0  0  0  0  0  0  0  0  0
   -3.6547   -2.1199   -0.5662 H   0  0  0  0  0  0  0  0  0  0  0  0
  1  2  1  0
  1 11  1  0
  1 12  1  0
  1 13  1  0
  2  3  1  0
  2 14  1  0
  3  4  2  0
  3  5  1  0
  5  6  2  3
  5  7  1  0
  6 15  1  0
  6 16  1  0
  7  8  1  0
  7 17  1  0
  8  9  1  0
  8 10  2  0
  9 18  1  0
  9 19  1  0
  9 20  1  0
M  END

> <RosettaParamsInstructions>
M  ROOT 7
M  POLY_N_BB 7
M  POLY_CA_BB 5
M  POLY_C_BB 3
M  POLY_O_BB 4
M  POLY_IGNORE 1 10 9 14 11 12 13 18 19 20
M  POLY_UPPER 2
M  POLY_LOWER 8
M  POLY_CHG 0
M  POLY_PROPERTIES PROTEIN POLYMER ALPHA_AA ALIPHATIC
M  END

$$$$
DHA_new
     RDKit          3D

 20 19  0  0  0  0  0  0  0  0999 V2000
    2.6800   -1.0512    2.5816 C   0  0  0  0  0  0  0  0  0  0  0  0
    1.7271   -0.2324    1.8213 N   0  0  0  0  0  0  0  0  0  0  0  0
    0.5669   -0.8266    1.3220 C   0  0  0  0  0  0  0  0  0  0  0  0
    0.3366   -2.0499    1.5191 O   0  0  0  0  0  0  0  0  0  0  0  0
   -0.4496   -0.0806    0.5451 C   0  0  0  0  0  0  0  0  0  0  0  0
   -0.2388    1.1957    0.3227 C   0  0  0  0  0  0  0  0  0  0  0  0
   -1.5983   -0.7540    0.0736 N   0  0  0  0  0  0  0  0  0  0  0  0
   -2.6555   -0.2399   -0.6643 C   0  0  0  0  0  0  0  0  0  0  0  0
   -3.7878   -1.1373   -1.0665 C   0  0  0  0  0  0  0  0  0  0  0  0
   -2.7477    0.9381   -1.0324 O   0  0  0  0  0  0  0  0  0  0  0  0
    3.4417   -1.4414    1.8913 H   0  0  0  0  0  0  0  0  0  0  0  0
    2.1230   -1.9035    3.0520 H   0  0  0  0  0  0  0  0  0  0  0  0
    3.0925   -0.4387    3.4090 H   0  0  0  0  0  0  0  0  0  0  0  0
    1.9972    0.7538    1.7104 H   0  0  0  0  0  0  0  0  0  0  0  0
    0.6570    1.7021    0.6955 H   0  0  0  0  0  0  0  0  0  0  0  0
   -0.9238    1.7960   -0.2269 H   0  0  0  0  0  0  0  0  0  0  0  0
   -1.6263   -1.7986    0.3376 H   0  0  0  0  0  0  0  0  0  0  0  0
   -4.7364   -0.5963   -1.0193 H   0  0  0  0  0  0  0  0  0  0  0  0
   -3.8637   -2.0245   -0.4263 H   0  0  0  0  0  0  0  0  0  0  0  0
   -3.6006   -1.4631   -2.1047 H   0  0  0  0  0  0  0  0  0  0  0  0
  1  2  1  0
  1 11  1  0
  1 12  1  0
  1 13  1  0
  2  3  1  0
  2 14  1  0
  3  4  2  0
  3  5  1  0
  5  6  2  3
  5  7  1  0
  6 15  1  0
  6 16  1  0
  7  8  1  0
  7 17  1  0
  8  9  1  0
  8 10  2  0
  9 18  1  0
  9 19  1  0
  9 20  1  0
M  END

> <RosettaParamsInstructions>
M  ROOT 7
M  POLY_N_BB 7
M  POLY_CA_BB 5
M  POLY_C_BB 3
M  POLY_O_BB 4
M  POLY_IGNORE 1 10 9 14 11 12 13 18 19 20
M  POLY_UPPER 2
M  POLY_LOWER 8
M  POLY_CHG 0
M  POLY_PROPERTIES PROTEIN POLYMER ALPHA_AA ALIPHATIC
M  END

$$$$
DHA_new
     RDKit          3D

 20 19  0  0  0  0  0  0  0  0999 V2000
    2.6186   -1.0614    2.6690 C   0  0  0  0  0  0  0  0  0  0  0  0
    1.6587   -0.2719    1.8754 N   0  0  0  0  0  0  0  0  0  0  0  0
    0.5074   -0.8402    1.3354 C   0  0  0  0  0  0  0  0  0  0  0  0
    0.3144   -2.0810    1.5561 O   0  0  0  0  0  0  0  0  0  0  0  0
   -0.4402   -0.0681    0.5540 C   0  0  0  0  0  0  0  0  0  0  0  0
   -0.2558    1.2101    0.3179 C   0  0  0  0  0  0  0  0  0  0  0  0
   -1.5774   -0.7556    0.0548 N   0  0  0  0  0  0  0  0  0  0  0  0
   -2.6229   -0.2452   -0.7145 C   0  0  0  0  0  0  0  0  0  0  0  0
   -3.7399   -1.1766   -1.1355 C   0  0  0  0  0  0  0  0  0  0  0  0
   -2.7200    0.9415   -1.0955 O   0  0  0  0  0  0  0  0  0  0  0  0
    3.6350   -0.8247    2.2447 H   0  0  0  0  0  0  0  0  0  0  0  0
    2.5267   -0.7375    3.7257 H   0  0  0  0  0  0  0  0  0  0  0  0
    2.4254   -2.1323    2.5396 H   0  0  0  0  0  0  0  0  0  0  0  0
    1.8835    0.7227    1.7408 H   0  0  0  0  0  0  0  0  0  0  0  0
   -0.9054    1.8536   -0.2488 H   0  0  0  0  0  0  0  0  0  0  0  0
    0.6272    1.7340    0.7083 H   0  0  0  0  0  0  0  0  0  0  0  0
   -1.6217   -1.8013    0.3122 H   0  0  0  0  0  0  0  0  0  0  0  0
   -3.5166   -1.5248   -2.1670 H   0  0  0  0  0  0  0  0  0  0  0  0
   -3.7442   -2.0070   -0.4329 H   0  0  0  0  0  0  0  0  0  0  0  0
   -4.6592   -0.5864   -1.0987 H   0  0  0  0  0  0  0  0  0  0  0  0
  1  2  1  0
  1 11  1  0
  1 12  1  0
  1 13  1  0
  2  3  1  0
  2 14  1  0
  3  4  2  0
  3  5  1  0
  5  6  2  3
  5  7  1  0
  6 15  1  0
  6 16  1  0
  7  8  1  0
  7 17  1  0
  8  9  1  0
  8 10  2  0
  9 18  1  0
  9 19  1  0
  9 20  1  0
M  END

> <RosettaParamsInstructions>
M  ROOT 7
M  POLY_N_BB 7
M  POLY_CA_BB 5
M  POLY_C_BB 3
M  POLY_O_BB 4
M  POLY_IGNORE 1 10 9 14 11 12 13 18 19 20
M  POLY_UPPER 2
M  POLY_LOWER 8
M  POLY_CHG 0
M  POLY_PROPERTIES PROTEIN POLYMER ALPHA_AA ALIPHATIC
M  END

$$$$
DHA_new
     RDKit          3D

 20 19  0  0  0  0  0  0  0  0999 V2000
    2.7309   -1.0743    2.4900 C   0  0  0  0  0  0  0  0  0  0  0  0
    1.7161   -0.2642    1.8065 N   0  0  0  0  0  0  0  0  0  0  0  0
    0.5590   -0.8465    1.2611 C   0  0  0  0  0  0  0  0  0  0  0  0
    0.3833   -2.1209    1.3625 O   0  0  0  0  0  0  0  0  0  0  0  0
   -0.4606   -0.0668    0.5796 C   0  0  0  0  0  0  0  0  0  0  0  0
   -0.3092    1.2267    0.4619 C   0  0  0  0  0  0  0  0  0  0  0  0
   -1.5853   -0.7594    0.0691 N   0  0  0  0  0  0  0  0  0  0  0  0
   -2.6821   -0.2289   -0.6162 C   0  0  0  0  0  0  0  0  0  0  0  0
   -3.7698   -1.1628   -1.0689 C   0  0  0  0  0  0  0  0  0  0  0  0
   -2.8039    0.9697   -0.8693 O   0  0  0  0  0  0  0  0  0  0  0  0
    3.5722   -1.3235    1.8417 H   0  0  0  0  0  0  0  0  0  0  0  0
    2.2281   -1.9688    2.9348 H   0  0  0  0  0  0  0  0  0  0  0  0
    3.1058   -0.4831    3.3427 H   0  0  0  0  0  0  0  0  0  0  0  0
    1.8993    0.7471    1.7501 H   0  0  0  0  0  0  0  0  0  0  0  0
   -1.0133    1.8918   -0.0284 H   0  0  0  0  0  0  0  0  0  0  0  0
    0.5616    1.7601    0.8576 H   0  0  0  0  0  0  0  0  0  0  0  0
   -1.6166   -1.8180    0.2163 H   0  0  0  0  0  0  0  0  0  0  0  0
   -4.5924   -1.1887   -0.3265 H   0  0  0  0  0  0  0  0  0  0  0  0
   -4.1689   -0.7689   -2.0325 H   0  0  0  0  0  0  0  0  0  0  0  0
   -3.3606   -2.1727   -1.2913 H   0  0  0  0  0  0  0  0  0  0  0  0
  1  2  1  0
  1 11  1  0
  1 12  1  0
  1 13  1  0
  2  3  1  0
  2 14  1  0
  3  4  2  0
  3  5  1  0
  5  6  2  3
  5  7  1  0
  6 15  1  0
  6 16  1  0
  7  8  1  0
  7 17  1  0
  8  9  1  0
  8 10  2  0
  9 18  1  0
  9 19  1  0
  9 20  1  0
M  END

> <RosettaParamsInstructions>
M  ROOT 7
M  POLY_N_BB 7
M  POLY_CA_BB 5
M  POLY_C_BB 3
M  POLY_O_BB 4
M  POLY_IGNORE 1 10 9 14 11 12 13 18 19 20
M  POLY_UPPER 2
M  POLY_LOWER 8
M  POLY_CHG 0
M  POLY_PROPERTIES PROTEIN POLYMER ALPHA_AA ALIPHATIC
M  END

$$$$
DHA_new
     RDKit          3D

 20 19  0  0  0  0  0  0  0  0999 V2000
    2.6281   -1.0773    2.5783 C   0  0  0  0  0  0  0  0  0  0  0  0
    1.6797   -0.2048    1.8671 N   0  0  0  0  0  0  0  0  0  0  0  0
    0.5501   -0.8199    1.3026 C   0  0  0  0  0  0  0  0  0  0  0  0
    0.3933   -2.0786    1.4246 O   0  0  0  0  0  0  0  0  0  0  0  0
   -0.4571   -0.0626    0.5762 C   0  0  0  0  0  0  0  0  0  0  0  0
   -0.3113    1.2233    0.4430 C   0  0  0  0  0  0  0  0  0  0  0  0
   -1.5513   -0.7710    0.0485 N   0  0  0  0  0  0  0  0  0  0  0  0
   -2.6364   -0.2581   -0.6823 C   0  0  0  0  0  0  0  0  0  0  0  0
   -3.7401   -1.1400   -1.1860 C   0  0  0  0  0  0  0  0  0  0  0  0
   -2.7660    0.9479   -0.9651 O   0  0  0  0  0  0  0  0  0  0  0  0
    2.4766   -2.1391    2.3002 H   0  0  0  0  0  0  0  0  0  0  0  0
    3.6453   -0.7554    2.2395 H   0  0  0  0  0  0  0  0  0  0  0  0
    2.5815   -0.9245    3.6605 H   0  0  0  0  0  0  0  0  0  0  0  0
    1.9212    0.8089    1.8371 H   0  0  0  0  0  0  0  0  0  0  0  0
   -0.9961    1.8518   -0.0703 H   0  0  0  0  0  0  0  0  0  0  0  0
    0.5487    1.7189    0.8681 H   0  0  0  0  0  0  0  0  0  0  0  0
   -1.5600   -1.8289    0.2241 H   0  0  0  0  0  0  0  0  0  0  0  0
   -3.7676   -2.0079   -0.4666 H   0  0  0  0  0  0  0  0  0  0  0  0
   -3.5437   -1.5249   -2.1888 H   0  0  0  0  0  0  0  0  0  0  0  0
   -4.7017   -0.6099   -1.0699 H   0  0  0  0  0  0  0  0  0  0  0  0
  1  2  1  0
  1 11  1  0
  1 12  1  0
  1 13  1  0
  2  3  1  0
  2 14  1  0
  3  4  2  0
  3  5  1  0
  5  6  2  3
  5  7  1  0
  6 15  1  0
  6 16  1  0
  7  8  1  0
  7 17  1  0
  8  9  1  0
  8 10  2  0
  9 18  1  0
  9 19  1  0
  9 20  1  0
M  END

> <RosettaParamsInstructions>
M  ROOT 7
M  POLY_N_BB 7
M  POLY_CA_BB 5
M  POLY_C_BB 3
M  POLY_O_BB 4
M  POLY_IGNORE 1 10 9 14 11 12 13 18 19 20
M  POLY_UPPER 2
M  POLY_LOWER 8
M  POLY_CHG 0
M  POLY_PROPERTIES PROTEIN POLYMER ALPHA_AA ALIPHATIC
M  END

$$$$
DHA_new
     RDKit          3D

 20 19  0  0  0  0  0  0  0  0999 V2000
    2.7052   -1.0609    2.4898 C   0  0  0  0  0  0  0  0  0  0  0  0
    1.6509   -0.2181    1.8943 N   0  0  0  0  0  0  0  0  0  0  0  0
    0.5774   -0.8526    1.2469 C   0  0  0  0  0  0  0  0  0  0  0  0
    0.5278   -2.1254    1.1828 O   0  0  0  0  0  0  0  0  0  0  0  0
   -0.4906   -0.0702    0.6417 C   0  0  0  0  0  0  0  0  0  0  0  0
   -0.4541    1.2313    0.6990 C   0  0  0  0  0  0  0  0  0  0  0  0
   -1.5439   -0.7655    0.0044 N   0  0  0  0  0  0  0  0  0  0  0  0
   -2.6721   -0.2410   -0.6432 C   0  0  0  0  0  0  0  0  0  0  0  0
   -3.6885   -1.1782   -1.2654 C   0  0  0  0  0  0  0  0  0  0  0  0
   -2.9017    0.9767   -0.7444 O   0  0  0  0  0  0  0  0  0  0  0  0
    2.9694   -0.6779    3.5082 H   0  0  0  0  0  0  0  0  0  0  0  0
    3.5764   -1.0048    1.8340 H   0  0  0  0  0  0  0  0  0  0  0  0
    2.3538   -2.1026    2.5604 H   0  0  0  0  0  0  0  0  0  0  0  0
    1.8101    0.7912    2.0155 H   0  0  0  0  0  0  0  0  0  0  0  0
    0.3696    1.7439    1.1964 H   0  0  0  0  0  0  0  0  0  0  0  0
   -1.2010    1.9029    0.2791 H   0  0  0  0  0  0  0  0  0  0  0  0
   -1.4518   -1.8411    0.0289 H   0  0  0  0  0  0  0  0  0  0  0  0
   -3.6825   -2.0804   -0.6260 H   0  0  0  0  0  0  0  0  0  0  0  0
   -4.6823   -0.6835   -1.2467 H   0  0  0  0  0  0  0  0  0  0  0  0
   -3.3787   -1.3959   -2.3148 H   0  0  0  0  0  0  0  0  0  0  0  0
  1  2  1  0
  1 11  1  0
  1 12  1  0
  1 13  1  0
  2  3  1  0
  2 14  1  0
  3  4  2  0
  3  5  1  0
  5  6  2  3
  5  7  1  0
  6 15  1  0
  6 16  1  0
  7  8  1  0
  7 17  1  0
  8  9  1  0
  8 10  2  0
  9 18  1  0
  9 19  1  0
  9 20  1  0
M  END

> <RosettaParamsInstructions>
M  ROOT 7
M  POLY_N_BB 7
M  POLY_CA_BB 5
M  POLY_C_BB 3
M  POLY_O_BB 4
M  POLY_IGNORE 1 10 9 14 11 12 13 18 19 20
M  POLY_UPPER 2
M  POLY_LOWER 8
M  POLY_CHG 0
M  POLY_PROPERTIES PROTEIN POLYMER ALPHA_AA ALIPHATIC
M  END

$$$$
DHA_new
     RDKit          3D

 20 19  0  0  0  0  0  0  0  0999 V2000
    2.7083   -1.0522    2.5442 C   0  0  0  0  0  0  0  0  0  0  0  0
    1.6880   -0.2250    1.8719 N   0  0  0  0  0  0  0  0  0  0  0  0
    0.5693   -0.8173    1.2789 C   0  0  0  0  0  0  0  0  0  0  0  0
    0.4649   -2.0867    1.3403 O   0  0  0  0  0  0  0  0  0  0  0  0
   -0.5053   -0.0705    0.5829 C   0  0  0  0  0  0  0  0  0  0  0  0
   -0.3869    1.2241    0.5272 C   0  0  0  0  0  0  0  0  0  0  0  0
   -1.5833   -0.7700    0.0238 N   0  0  0  0  0  0  0  0  0  0  0  0
   -2.6643   -0.2403   -0.6550 C   0  0  0  0  0  0  0  0  0  0  0  0
   -3.7231   -1.1774   -1.1801 C   0  0  0  0  0  0  0  0  0  0  0  0
   -2.8133    0.9788   -0.8587 O   0  0  0  0  0  0  0  0  0  0  0  0
    3.7062   -0.5950    2.4781 H   0  0  0  0  0  0  0  0  0  0  0  0
    2.4639   -1.2048    3.5986 H   0  0  0  0  0  0  0  0  0  0  0  0
    2.7482   -2.0107    1.9804 H   0  0  0  0  0  0  0  0  0  0  0  0
    1.9030    0.7902    1.8992 H   0  0  0  0  0  0  0  0  0  0  0  0
    0.4787    1.7463    0.9799 H   0  0  0  0  0  0  0  0  0  0  0  0
   -1.1048    1.8500    0.0500 H   0  0  0  0  0  0  0  0  0  0  0  0
   -1.5751   -1.8540    0.1328 H   0  0  0  0  0  0  0  0  0  0  0  0
   -3.6612   -2.1328   -0.6453 H   0  0  0  0  0  0  0  0  0  0  0  0
   -4.6857   -0.7149   -0.9453 H   0  0  0  0  0  0  0  0  0  0  0  0
   -3.6340   -1.2902   -2.2627 H   0  0  0  0  0  0  0  0  0  0  0  0
  1  2  1  0
  1 11  1  0
  1 12  1  0
  1 13  1  0
  2  3  1  0
  2 14  1  0
  3  4  2  0
  3  5  1  0
  5  6  2  3
  5  7  1  0
  6 15  1  0
  6 16  1  0
  7  8  1  0
  7 17  1  0
  8  9  1  0
  8 10  2  0
  9 18  1  0
  9 19  1  0
  9 20  1  0
M  END

> <RosettaParamsInstructions>
M  ROOT 7
M  POLY_N_BB 7
M  POLY_CA_BB 5
M  POLY_C_BB 3
M  POLY_O_BB 4
M  POLY_IGNORE 1 10 9 14 11 12 13 18 19 20
M  POLY_UPPER 2
M  POLY_LOWER 8
M  POLY_CHG 0
M  POLY_PROPERTIES PROTEIN POLYMER ALPHA_AA ALIPHATIC
M  END

$$$$
DHA_new
     RDKit          3D

 20 19  0  0  0  0  0  0  0  0999 V2000
    2.6623   -1.0517    2.5901 C   0  0  0  0  0  0  0  0  0  0  0  0
    1.6972   -0.2236    1.8294 N   0  0  0  0  0  0  0  0  0  0  0  0
    0.5646   -0.8549    1.3306 C   0  0  0  0  0  0  0  0  0  0  0  0
    0.3793   -2.0727    1.5230 O   0  0  0  0  0  0  0  0  0  0  0  0
   -0.4467   -0.0933    0.5595 C   0  0  0  0  0  0  0  0  0  0  0  0
   -0.2955    1.1850    0.3326 C   0  0  0  0  0  0  0  0  0  0  0  0
   -1.5812   -0.8018    0.0787 N   0  0  0  0  0  0  0  0  0  0  0  0
   -2.6297   -0.2515   -0.6620 C   0  0  0  0  0  0  0  0  0  0  0  0
   -3.7762   -1.1333   -1.1071 C   0  0  0  0  0  0  0  0  0  0  0  0
   -2.7176    0.9357   -1.0046 O   0  0  0  0  0  0  0  0  0  0  0  0
    3.5695   -1.1944    1.9469 H   0  0  0  0  0  0  0  0  0  0  0  0
    2.2161   -2.0267    2.8560 H   0  0  0  0  0  0  0  0  0  0  0  0
    2.9198   -0.4904    3.4967 H   0  0  0  0  0  0  0  0  0  0  0  0
    1.9696    0.7602    1.7450 H   0  0  0  0  0  0  0  0  0  0  0  0
   -0.9373    1.8314   -0.1968 H   0  0  0  0  0  0  0  0  0  0  0  0
    0.6092    1.6780    0.7338 H   0  0  0  0  0  0  0  0  0  0  0  0
   -1.6243   -1.8498    0.3114 H   0  0  0  0  0  0  0  0  0  0  0  0
   -4.1318   -0.8044   -2.1046 H   0  0  0  0  0  0  0  0  0  0  0  0
   -4.5962   -0.9977   -0.3725 H   0  0  0  0  0  0  0  0  0  0  0  0
   -3.4573   -2.1962   -1.1452 H   0  0  0  0  0  0  0  0  0  0  0  0
  1  2  1  0
  1 11  1  0
  1 12  1  0
  1 13  1  0
  2  3  1  0
  2 14  1  0
  3  4  2  0
  3  5  1  0
  5  6  2  3
  5  7  1  0
  6 15  1  0
  6 16  1  0
  7  8  1  0
  7 17  1  0
  8  9  1  0
  8 10  2  0
  9 18  1  0
  9 19  1  0
  9 20  1  0
M  END

> <RosettaParamsInstructions>
M  ROOT 7
M  POLY_N_BB 7
M  POLY_CA_BB 5
M  POLY_C_BB 3
M  POLY_O_BB 4
M  POLY_IGNORE 1 10 9 14 11 12 13 18 19 20
M  POLY_UPPER 2
M  POLY_LOWER 8
M  POLY_CHG 0
M  POLY_PROPERTIES PROTEIN POLYMER ALPHA_AA ALIPHATIC
M  END

$$$$
DHA_new
     RDKit          3D

 20 19  0  0  0  0  0  0  0  0999 V2000
    2.6321   -1.0150    2.6924 C   0  0  0  0  0  0  0  0  0  0  0  0
    1.7004   -0.2296    1.9013 N   0  0  0  0  0  0  0  0  0  0  0  0
    0.5524   -0.8159    1.3698 C   0  0  0  0  0  0  0  0  0  0  0  0
    0.3248   -2.0582    1.5856 O   0  0  0  0  0  0  0  0  0  0  0  0
   -0.4490   -0.0794    0.5502 C   0  0  0  0  0  0  0  0  0  0  0  0
   -0.2907    1.1842    0.2860 C   0  0  0  0  0  0  0  0  0  0  0  0
   -1.5675   -0.7953    0.0736 N   0  0  0  0  0  0  0  0  0  0  0  0
   -2.5993   -0.2617   -0.7066 C   0  0  0  0  0  0  0  0  0  0  0  0
   -3.7483   -1.1493   -1.1528 C   0  0  0  0  0  0  0  0  0  0  0  0
   -2.7095    0.9149   -1.1094 O   0  0  0  0  0  0  0  0  0  0  0  0
    2.3253   -1.1278    3.7397 H   0  0  0  0  0  0  0  0  0  0  0  0
    2.7077   -2.0521    2.2645 H   0  0  0  0  0  0  0  0  0  0  0  0
    3.6665   -0.5853    2.5828 H   0  0  0  0  0  0  0  0  0  0  0  0
    1.9347    0.7678    1.7594 H   0  0  0  0  0  0  0  0  0  0  0  0
    0.5999    1.7161    0.6764 H   0  0  0  0  0  0  0  0  0  0  0  0
   -0.9388    1.8072   -0.2862 H   0  0  0  0  0  0  0  0  0  0  0  0
   -1.6671   -1.8403    0.3111 H   0  0  0  0  0  0  0  0  0  0  0  0
   -4.1072   -0.8572   -2.1506 H   0  0  0  0  0  0  0  0  0  0  0  0
   -3.4038   -2.1934   -1.2117 H   0  0  0  0  0  0  0  0  0  0  0  0
   -4.5690   -0.9820   -0.4346 H   0  0  0  0  0  0  0  0  0  0  0  0
  1  2  1  0
  1 11  1  0
  1 12  1  0
  1 13  1  0
  2  3  1  0
  2 14  1  0
  3  4  2  0
  3  5  1  0
  5  6  2  3
  5  7  1  0
  6 15  1  0
  6 16  1  0
  7  8  1  0
  7 17  1  0
  8  9  1  0
  8 10  2  0
  9 18  1  0
  9 19  1  0
  9 20  1  0
M  END

> <RosettaParamsInstructions>
M  ROOT 7
M  POLY_N_BB 7
M  POLY_CA_BB 5
M  POLY_C_BB 3
M  POLY_O_BB 4
M  POLY_IGNORE 1 10 9 14 11 12 13 18 19 20
M  POLY_UPPER 2
M  POLY_LOWER 8
M  POLY_CHG 0
M  POLY_PROPERTIES PROTEIN POLYMER ALPHA_AA ALIPHATIC
M  END

$$$$
DHA_new
     RDKit          3D

 20 19  0  0  0  0  0  0  0  0999 V2000
    2.6681   -1.0695    2.5578 C   0  0  0  0  0  0  0  0  0  0  0  0
    1.6991   -0.2277    1.8544 N   0  0  0  0  0  0  0  0  0  0  0  0
    0.5503   -0.8093    1.2821 C   0  0  0  0  0  0  0  0  0  0  0  0
    0.4130   -2.0602    1.4095 O   0  0  0  0  0  0  0  0  0  0  0  0
   -0.4767   -0.0535    0.5593 C   0  0  0  0  0  0  0  0  0  0  0  0
   -0.3099    1.2365    0.4427 C   0  0  0  0  0  0  0  0  0  0  0  0
   -1.5656   -0.7659    0.0436 N   0  0  0  0  0  0  0  0  0  0  0  0
   -2.6519   -0.2442   -0.6751 C   0  0  0  0  0  0  0  0  0  0  0  0
   -3.7452   -1.1711   -1.1578 C   0  0  0  0  0  0  0  0  0  0  0  0
   -2.7737    0.9495   -0.9436 O   0  0  0  0  0  0  0  0  0  0  0  0
    2.1254   -1.9626    2.9039 H   0  0  0  0  0  0  0  0  0  0  0  0
    3.5168   -1.3458    1.9299 H   0  0  0  0  0  0  0  0  0  0  0  0
    2.9899   -0.5225    3.4678 H   0  0  0  0  0  0  0  0  0  0  0  0
    1.9422    0.7875    1.8277 H   0  0  0  0  0  0  0  0  0  0  0  0
   -1.0248    1.8498   -0.0750 H   0  0  0  0  0  0  0  0  0  0  0  0
    0.5638    1.7428    0.8672 H   0  0  0  0  0  0  0  0  0  0  0  0
   -1.5632   -1.8253    0.2205 H   0  0  0  0  0  0  0  0  0  0  0  0
   -4.7266   -0.6456   -1.0101 H   0  0  0  0  0  0  0  0  0  0  0  0
   -3.6873   -2.0974   -0.5577 H   0  0  0  0  0  0  0  0  0  0  0  0
   -3.5502   -1.4176   -2.2062 H   0  0  0  0  0  0  0  0  0  0  0  0
  1  2  1  0
  1 11  1  0
  1 12  1  0
  1 13  1  0
  2  3  1  0
  2 14  1  0
  3  4  2  0
  3  5  1  0
  5  6  2  3
  5  7  1  0
  6 15  1  0
  6 16  1  0
  7  8  1  0
  7 17  1  0
  8  9  1  0
  8 10  2  0
  9 18  1  0
  9 19  1  0
  9 20  1  0
M  END

> <RosettaParamsInstructions>
M  ROOT 7
M  POLY_N_BB 7
M  POLY_CA_BB 5
M  POLY_C_BB 3
M  POLY_O_BB 4
M  POLY_IGNORE 1 10 9 14 11 12 13 18 19 20
M  POLY_UPPER 2
M  POLY_LOWER 8
M  POLY_CHG 0
M  POLY_PROPERTIES PROTEIN POLYMER ALPHA_AA ALIPHATIC
M  END

$$$$
DHA_new
     RDKit          3D

 20 19  0  0  0  0  0  0  0  0999 V2000
    2.6297   -1.0871    2.6675 C   0  0  0  0  0  0  0  0  0  0  0  0
    1.6816   -0.2440    1.9242 N   0  0  0  0  0  0  0  0  0  0  0  0
    0.5319   -0.7912    1.3256 C   0  0  0  0  0  0  0  0  0  0  0  0
    0.3607   -2.0396    1.4616 O   0  0  0  0  0  0  0  0  0  0  0  0
   -0.4703   -0.0557    0.5699 C   0  0  0  0  0  0  0  0  0  0  0  0
   -0.3458    1.2344    0.3973 C   0  0  0  0  0  0  0  0  0  0  0  0
   -1.5663   -0.7666    0.0358 N   0  0  0  0  0  0  0  0  0  0  0  0
   -2.6164   -0.2296   -0.7109 C   0  0  0  0  0  0  0  0  0  0  0  0
   -3.7035   -1.1666   -1.1959 C   0  0  0  0  0  0  0  0  0  0  0  0
   -2.7676    0.9642   -1.0339 O   0  0  0  0  0  0  0  0  0  0  0  0
    2.2816   -1.2610    3.7066 H   0  0  0  0  0  0  0  0  0  0  0  0
    3.5930   -0.5423    2.7230 H   0  0  0  0  0  0  0  0  0  0  0  0
    2.7954   -2.0432    2.1356 H   0  0  0  0  0  0  0  0  0  0  0  0
    1.8648    0.7759    1.8397 H   0  0  0  0  0  0  0  0  0  0  0  0
    0.5195    1.7397    0.8298 H   0  0  0  0  0  0  0  0  0  0  0  0
   -1.0063    1.8881   -0.1334 H   0  0  0  0  0  0  0  0  0  0  0  0
   -1.5733   -1.8091    0.2326 H   0  0  0  0  0  0  0  0  0  0  0  0
   -3.4461   -1.4862   -2.2340 H   0  0  0  0  0  0  0  0  0  0  0  0
   -3.7064   -2.0914   -0.5796 H   0  0  0  0  0  0  0  0  0  0  0  0
   -4.6629   -0.6409   -1.2207 H   0  0  0  0  0  0  0  0  0  0  0  0
  1  2  1  0
  1 11  1  0
  1 12  1  0
  1 13  1  0
  2  3  1  0
  2 14  1  0
  3  4  2  0
  3  5  1  0
  5  6  2  3
  5  7  1  0
  6 15  1  0
  6 16  1  0
  7  8  1  0
  7 17  1  0
  8  9  1  0
  8 10  2  0
  9 18  1  0
  9 19  1  0
  9 20  1  0
M  END

> <RosettaParamsInstructions>
M  ROOT 7
M  POLY_N_BB 7
M  POLY_CA_BB 5
M  POLY_C_BB 3
M  POLY_O_BB 4
M  POLY_IGNORE 1 10 9 14 11 12 13 18 19 20
M  POLY_UPPER 2
M  POLY_LOWER 8
M  POLY_CHG 0
M  POLY_PROPERTIES PROTEIN POLYMER ALPHA_AA ALIPHATIC
M  END

$$$$
DHA_new
     RDKit          3D

 20 19  0  0  0  0  0  0  0  0999 V2000
    2.2615   -1.5847    2.4199 C   0  0  0  0  0  0  0  0  0  0  0  0
    1.0437   -1.2489    1.6527 N   0  0  0  0  0  0  0  0  0  0  0  0
    0.8435    0.0835    1.3154 C   0  0  0  0  0  0  0  0  0  0  0  0
    1.6722    0.9578    1.6551 O   0  0  0  0  0  0  0  0  0  0  0  0
   -0.3316    0.5215    0.5564 C   0  0  0  0  0  0  0  0  0  0  0  0
   -0.4829    1.7825    0.2594 C   0  0  0  0  0  0  0  0  0  0  0  0
   -1.2795   -0.4444    0.1624 N   0  0  0  0  0  0  0  0  0  0  0  0
   -2.4545   -0.2210   -0.5610 C   0  0  0  0  0  0  0  0  0  0  0  0
   -3.3424   -1.4133   -0.8825 C   0  0  0  0  0  0  0  0  0  0  0  0
   -2.8453    0.8738   -0.9704 O   0  0  0  0  0  0  0  0  0  0  0  0
    2.0028   -2.4057    3.1050 H   0  0  0  0  0  0  0  0  0  0  0  0
    2.5724   -0.7059    2.9928 H   0  0  0  0  0  0  0  0  0  0  0  0
    3.0279   -1.8960    1.7029 H   0  0  0  0  0  0  0  0  0  0  0  0
    0.4179   -2.0391    1.4176 H   0  0  0  0  0  0  0  0  0  0  0  0
    0.2811    2.4956    0.5879 H   0  0  0  0  0  0  0  0  0  0  0  0
   -1.2960    2.1695   -0.2797 H   0  0  0  0  0  0  0  0  0  0  0  0
   -1.1025   -1.4663    0.4348 H   0  0  0  0  0  0  0  0  0  0  0  0
   -2.7029   -2.3099   -0.9667 H   0  0  0  0  0  0  0  0  0  0  0  0
   -3.8612   -1.2248   -1.8329 H   0  0  0  0  0  0  0  0  0  0  0  0
   -4.0308   -1.5765   -0.0282 H   0  0  0  0  0  0  0  0  0  0  0  0
  1  2  1  0
  1 11  1  0
  1 12  1  0
  1 13  1  0
  2  3  1  0
  2 14  1  0
  3  4  2  0
  3  5  1  0
  5  6  2  3
  5  7  1  0
  6 15  1  0
  6 16  1  0
  7  8  1  0
  7 17  1  0
  8  9  1  0
  8 10  2  0
  9 18  1  0
  9 19  1  0
  9 20  1  0
M  END

> <RosettaParamsInstructions>
M  ROOT 7
M  POLY_N_BB 7
M  POLY_CA_BB 5
M  POLY_C_BB 3
M  POLY_O_BB 4
M  POLY_IGNORE 1 10 9 14 11 12 13 18 19 20
M  POLY_UPPER 2
M  POLY_LOWER 8
M  POLY_CHG 0
M  POLY_PROPERTIES PROTEIN POLYMER ALPHA_AA ALIPHATIC
M  END

$$$$
DHA_new
     RDKit          3D

 20 19  0  0  0  0  0  0  0  0999 V2000
    2.6681   -1.0688    2.5709 C   0  0  0  0  0  0  0  0  0  0  0  0
    1.7126   -0.2241    1.8743 N   0  0  0  0  0  0  0  0  0  0  0  0
    0.5683   -0.8004    1.2996 C   0  0  0  0  0  0  0  0  0  0  0  0
    0.4080   -2.0493    1.4101 O   0  0  0  0  0  0  0  0  0  0  0  0
   -0.4693   -0.0496    0.5704 C   0  0  0  0  0  0  0  0  0  0  0  0
   -0.3479    1.2327    0.4317 C   0  0  0  0  0  0  0  0  0  0  0  0
   -1.5570   -0.7750    0.0531 N   0  0  0  0  0  0  0  0  0  0  0  0
   -2.6313   -0.2456   -0.6615 C   0  0  0  0  0  0  0  0  0  0  0  0
   -3.7351   -1.1592   -1.1573 C   0  0  0  0  0  0  0  0  0  0  0  0
   -2.7958    0.9475   -0.9526 O   0  0  0  0  0  0  0  0  0  0  0  0
    2.2038   -2.0565    2.7915 H   0  0  0  0  0  0  0  0  0  0  0  0
    3.5830   -1.2086    1.9592 H   0  0  0  0  0  0  0  0  0  0  0  0
    2.9288   -0.6142    3.5285 H   0  0  0  0  0  0  0  0  0  0  0  0
    1.9432    0.7867    1.8438 H   0  0  0  0  0  0  0  0  0  0  0  0
   -1.0456    1.8585   -0.0785 H   0  0  0  0  0  0  0  0  0  0  0  0
    0.5182    1.7499    0.8534 H   0  0  0  0  0  0  0  0  0  0  0  0
   -1.5640   -1.8326    0.2219 H   0  0  0  0  0  0  0  0  0  0  0  0
   -3.3416   -2.1901   -1.2243 H   0  0  0  0  0  0  0  0  0  0  0  0
   -4.0741   -0.8243   -2.1368 H   0  0  0  0  0  0  0  0  0  0  0  0
   -4.5788   -1.1291   -0.4565 H   0  0  0  0  0  0  0  0  0  0  0  0
  1  2  1  0
  1 11  1  0
  1 12  1  0
  1 13  1  0
  2  3  1  0
  2 14  1  0
  3  4  2  0
  3  5  1  0
  5  6  2  3
  5  7  1  0
  6 15  1  0
  6 16  1  0
  7  8  1  0
  7 17  1  0
  8  9  1  0
  8 10  2  0
  9 18  1  0
  9 19  1  0
  9 20  1  0
M  END

> <RosettaParamsInstructions>
M  ROOT 7
M  POLY_N_BB 7
M  POLY_CA_BB 5
M  POLY_C_BB 3
M  POLY_O_BB 4
M  POLY_IGNORE 1 10 9 14 11 12 13 18 19 20
M  POLY_UPPER 2
M  POLY_LOWER 8
M  POLY_CHG 0
M  POLY_PROPERTIES PROTEIN POLYMER ALPHA_AA ALIPHATIC
M  END

$$$$
DHA_new
     RDKit          3D

 20 19  0  0  0  0  0  0  0  0999 V2000
    2.6898   -1.0487    2.6144 C   0  0  0  0  0  0  0  0  0  0  0  0
    1.6939   -0.2598    1.8860 N   0  0  0  0  0  0  0  0  0  0  0  0
    0.5582   -0.8217    1.3168 C   0  0  0  0  0  0  0  0  0  0  0  0
    0.4094   -2.0860    1.4553 O   0  0  0  0  0  0  0  0  0  0  0  0
   -0.4860   -0.0874    0.5696 C   0  0  0  0  0  0  0  0  0  0  0  0
   -0.3551    1.2069    0.4152 C   0  0  0  0  0  0  0  0  0  0  0  0
   -1.5912   -0.7809    0.0420 N   0  0  0  0  0  0  0  0  0  0  0  0
   -2.6367   -0.2380   -0.6717 C   0  0  0  0  0  0  0  0  0  0  0  0
   -3.7376   -1.1485   -1.1579 C   0  0  0  0  0  0  0  0  0  0  0  0
   -2.7672    0.9638   -0.9637 O   0  0  0  0  0  0  0  0  0  0  0  0
    2.5519   -0.9767    3.7104 H   0  0  0  0  0  0  0  0  0  0  0  0
    2.5898   -2.1204    2.2739 H   0  0  0  0  0  0  0  0  0  0  0  0
    3.6771   -0.6733    2.3035 H   0  0  0  0  0  0  0  0  0  0  0  0
    1.8837    0.7590    1.8156 H   0  0  0  0  0  0  0  0  0  0  0  0
   -1.0106    1.8792   -0.0917 H   0  0  0  0  0  0  0  0  0  0  0  0
    0.5268    1.7265    0.8422 H   0  0  0  0  0  0  0  0  0  0  0  0
   -1.6240   -1.8484    0.2137 H   0  0  0  0  0  0  0  0  0  0  0  0
   -4.6807   -0.6065   -1.2545 H   0  0  0  0  0  0  0  0  0  0  0  0
   -3.8877   -1.9672   -0.4333 H   0  0  0  0  0  0  0  0  0  0  0  0
   -3.4104   -1.5243   -2.1449 H   0  0  0  0  0  0  0  0  0  0  0  0
  1  2  1  0
  1 11  1  0
  1 12  1  0
  1 13  1  0
  2  3  1  0
  2 14  1  0
  3  4  2  0
  3  5  1  0
  5  6  2  3
  5  7  1  0
  6 15  1  0
  6 16  1  0
  7  8  1  0
  7 17  1  0
  8  9  1  0
  8 10  2  0
  9 18  1  0
  9 19  1  0
  9 20  1  0
M  END

> <RosettaParamsInstructions>
M  ROOT 7
M  POLY_N_BB 7
M  POLY_CA_BB 5
M  POLY_C_BB 3
M  POLY_O_BB 4
M  POLY_IGNORE 1 10 9 14 11 12 13 18 19 20
M  POLY_UPPER 2
M  POLY_LOWER 8
M  POLY_CHG 0
M  POLY_PROPERTIES PROTEIN POLYMER ALPHA_AA ALIPHATIC
M  END

$$$$
DHA_new
     RDKit          3D

 20 19  0  0  0  0  0  0  0  0999 V2000
    2.2840   -1.5833    2.4476 C   0  0  0  0  0  0  0  0  0  0  0  0
    1.1031   -1.1979    1.6845 N   0  0  0  0  0  0  0  0  0  0  0  0
    0.8391    0.1233    1.3130 C   0  0  0  0  0  0  0  0  0  0  0  0
    1.6803    1.0032    1.6689 O   0  0  0  0  0  0  0  0  0  0  0  0
   -0.3562    0.5236    0.5389 C   0  0  0  0  0  0  0  0  0  0  0  0
   -0.4928    1.7953    0.2511 C   0  0  0  0  0  0  0  0  0  0  0  0
   -1.2909   -0.4581    0.1442 N   0  0  0  0  0  0  0  0  0  0  0  0
   -2.4725   -0.2428   -0.5917 C   0  0  0  0  0  0  0  0  0  0  0  0
   -3.3388   -1.4309   -0.9123 C   0  0  0  0  0  0  0  0  0  0  0  0
   -2.8718    0.8761   -1.0105 O   0  0  0  0  0  0  0  0  0  0  0  0
    1.9225   -2.0230    3.4028 H   0  0  0  0  0  0  0  0  0  0  0  0
    2.7700   -2.4082    1.8876 H   0  0  0  0  0  0  0  0  0  0  0  0
    2.9423   -0.7358    2.6600 H   0  0  0  0  0  0  0  0  0  0  0  0
    0.4766   -1.9851    1.4408 H   0  0  0  0  0  0  0  0  0  0  0  0
   -1.2921    2.2236   -0.2926 H   0  0  0  0  0  0  0  0  0  0  0  0
    0.2692    2.5160    0.5859 H   0  0  0  0  0  0  0  0  0  0  0  0
   -1.1010   -1.4611    0.4199 H   0  0  0  0  0  0  0  0  0  0  0  0
   -4.4108   -1.1379   -0.7510 H   0  0  0  0  0  0  0  0  0  0  0  0
   -3.1097   -2.2445   -0.2109 H   0  0  0  0  0  0  0  0  0  0  0  0
   -3.1570   -1.8044   -1.9353 H   0  0  0  0  0  0  0  0  0  0  0  0
  1  2  1  0
  1 11  1  0
  1 12  1  0
  1 13  1  0
  2  3  1  0
  2 14  1  0
  3  4  2  0
  3  5  1  0
  5  6  2  3
  5  7  1  0
  6 15  1  0
  6 16  1  0
  7  8  1  0
  7 17  1  0
  8  9  1  0
  8 10  2  0
  9 18  1  0
  9 19  1  0
  9 20  1  0
M  END

> <RosettaParamsInstructions>
M  ROOT 7
M  POLY_N_BB 7
M  POLY_CA_BB 5
M  POLY_C_BB 3
M  POLY_O_BB 4
M  POLY_IGNORE 1 10 9 14 11 12 13 18 19 20
M  POLY_UPPER 2
M  POLY_LOWER 8
M  POLY_CHG 0
M  POLY_PROPERTIES PROTEIN POLYMER ALPHA_AA ALIPHATIC
M  END

$$$$
DHA_new
     RDKit          3D

 20 19  0  0  0  0  0  0  0  0999 V2000
    2.2367   -1.5491    2.5341 C   0  0  0  0  0  0  0  0  0  0  0  0
    1.0306   -1.2461    1.7414 N   0  0  0  0  0  0  0  0  0  0  0  0
    0.8542    0.0656    1.2880 C   0  0  0  0  0  0  0  0  0  0  0  0
    1.7337    0.9322    1.5765 O   0  0  0  0  0  0  0  0  0  0  0  0
   -0.3139    0.5053    0.4815 C   0  0  0  0  0  0  0  0  0  0  0  0
   -0.3882    1.7651    0.1022 C   0  0  0  0  0  0  0  0  0  0  0  0
   -1.2933   -0.4410    0.1553 N   0  0  0  0  0  0  0  0  0  0  0  0
   -2.4747   -0.2497   -0.5930 C   0  0  0  0  0  0  0  0  0  0  0  0
   -3.4088   -1.4109   -0.8352 C   0  0  0  0  0  0  0  0  0  0  0  0
   -2.8533    0.8254   -1.1027 O   0  0  0  0  0  0  0  0  0  0  0  0
    3.0690   -0.9345    2.1311 H   0  0  0  0  0  0  0  0  0  0  0  0
    2.0723   -1.2406    3.5967 H   0  0  0  0  0  0  0  0  0  0  0  0
    2.4891   -2.6176    2.4456 H   0  0  0  0  0  0  0  0  0  0  0  0
    0.3839   -2.0183    1.5653 H   0  0  0  0  0  0  0  0  0  0  0  0
    0.4149    2.4397    0.3966 H   0  0  0  0  0  0  0  0  0  0  0  0
   -1.1983    2.1216   -0.4710 H   0  0  0  0  0  0  0  0  0  0  0  0
   -1.1374   -1.4304    0.5108 H   0  0  0  0  0  0  0  0  0  0  0  0
   -3.7584   -1.3520   -1.8874 H   0  0  0  0  0  0  0  0  0  0  0  0
   -2.8346   -2.3823   -0.7790 H   0  0  0  0  0  0  0  0  0  0  0  0
   -4.2299   -1.4345   -0.1158 H   0  0  0  0  0  0  0  0  0  0  0  0
  1  2  1  0
  1 11  1  0
  1 12  1  0
  1 13  1  0
  2  3  1  0
  2 14  1  0
  3  4  2  0
  3  5  1  0
  5  6  2  3
  5  7  1  0
  6 15  1  0
  6 16  1  0
  7  8  1  0
  7 17  1  0
  8  9  1  0
  8 10  2  0
  9 18  1  0
  9 19  1  0
  9 20  1  0
M  END

> <RosettaParamsInstructions>
M  ROOT 7
M  POLY_N_BB 7
M  POLY_CA_BB 5
M  POLY_C_BB 3
M  POLY_O_BB 4
M  POLY_IGNORE 1 10 9 14 11 12 13 18 19 20
M  POLY_UPPER 2
M  POLY_LOWER 8
M  POLY_CHG 0
M  POLY_PROPERTIES PROTEIN POLYMER ALPHA_AA ALIPHATIC
M  END

$$$$
DHA_new
     RDKit          3D

 20 19  0  0  0  0  0  0  0  0999 V2000
    2.6308   -1.0737    2.5730 C   0  0  0  0  0  0  0  0  0  0  0  0
    1.6804   -0.2070    1.8670 N   0  0  0  0  0  0  0  0  0  0  0  0
    0.5549   -0.8154    1.3018 C   0  0  0  0  0  0  0  0  0  0  0  0
    0.3700   -2.0541    1.3976 O   0  0  0  0  0  0  0  0  0  0  0  0
   -0.4549   -0.0321    0.5745 C   0  0  0  0  0  0  0  0  0  0  0  0
   -0.3177    1.2597    0.4417 C   0  0  0  0  0  0  0  0  0  0  0  0
   -1.5581   -0.7442    0.0397 N   0  0  0  0  0  0  0  0  0  0  0  0
   -2.6321   -0.2244   -0.6819 C   0  0  0  0  0  0  0  0  0  0  0  0
   -3.7047   -1.1908   -1.1565 C   0  0  0  0  0  0  0  0  0  0  0  0
   -2.7704    0.9787   -0.9631 O   0  0  0  0  0  0  0  0  0  0  0  0
    2.1445   -1.4216    3.5030 H   0  0  0  0  0  0  0  0  0  0  0  0
    2.8849   -1.9187    1.8871 H   0  0  0  0  0  0  0  0  0  0  0  0
    3.5808   -0.5561    2.7892 H   0  0  0  0  0  0  0  0  0  0  0  0
    1.9212    0.8037    1.8420 H   0  0  0  0  0  0  0  0  0  0  0  0
    0.5690    1.7544    0.8844 H   0  0  0  0  0  0  0  0  0  0  0  0
   -1.0286    1.8556   -0.0777 H   0  0  0  0  0  0  0  0  0  0  0  0
   -1.5679   -1.8080    0.2101 H   0  0  0  0  0  0  0  0  0  0  0  0
   -3.7959   -2.0384   -0.4289 H   0  0  0  0  0  0  0  0  0  0  0  0
   -3.4631   -1.5780   -2.1533 H   0  0  0  0  0  0  0  0  0  0  0  0
   -4.6496   -0.6418   -1.1089 H   0  0  0  0  0  0  0  0  0  0  0  0
  1  2  1  0
  1 11  1  0
  1 12  1  0
  1 13  1  0
  2  3  1  0
  2 14  1  0
  3  4  2  0
  3  5  1  0
  5  6  2  3
  5  7  1  0
  6 15  1  0
  6 16  1  0
  7  8  1  0
  7 17  1  0
  8  9  1  0
  8 10  2  0
  9 18  1  0
  9 19  1  0
  9 20  1  0
M  END

> <RosettaParamsInstructions>
M  ROOT 7
M  POLY_N_BB 7
M  POLY_CA_BB 5
M  POLY_C_BB 3
M  POLY_O_BB 4
M  POLY_IGNORE 1 10 9 14 11 12 13 18 19 20
M  POLY_UPPER 2
M  POLY_LOWER 8
M  POLY_CHG 0
M  POLY_PROPERTIES PROTEIN POLYMER ALPHA_AA ALIPHATIC
M  END

$$$$
DHA_new
     RDKit          3D

 20 19  0  0  0  0  0  0  0  0999 V2000
    2.4374   -1.2283    2.4388 C   0  0  0  0  0  0  0  0  0  0  0  0
    1.5812   -0.2441    1.7730 N   0  0  0  0  0  0  0  0  0  0  0  0
    0.3680   -0.6542    1.1438 C   0  0  0  0  0  0  0  0  0  0  0  0
    0.0951   -1.9004    1.2032 O   0  0  0  0  0  0  0  0  0  0  0  0
   -0.4732    0.3086    0.4905 C   0  0  0  0  0  0  0  0  0  0  0  0
   -0.1034    1.6089    0.4776 C   0  0  0  0  0  0  0  0  0  0  0  0
   -1.6789   -0.0398   -0.1451 N   0  0  0  0  0  0  0  0  0  0  0  0
   -2.2716   -1.2700   -0.2731 C   0  0  0  0  0  0  0  0  0  0  0  0
   -3.5986   -1.3048   -1.0333 C   0  0  0  0  0  0  0  0  0  0  0  0
   -1.9237   -2.3883    0.1225 O   0  0  0  0  0  0  0  0  0  0  0  0
    3.3945   -1.3676    1.9383 H   0  0  0  0  0  0  0  0  0  0  0  0
    2.6513   -0.8102    3.4593 H   0  0  0  0  0  0  0  0  0  0  0  0
    1.9129   -2.1841    2.5930 H   0  0  0  0  0  0  0  0  0  0  0  0
    1.8971    0.7250    1.7867 H   0  0  0  0  0  0  0  0  0  0  0  0
   -0.7352    2.3578   -0.0176 H   0  0  0  0  0  0  0  0  0  0  0  0
    0.7844    1.9133    0.9373 H   0  0  0  0  0  0  0  0  0  0  0  0
   -2.1929    0.7955   -0.5872 H   0  0  0  0  0  0  0  0  0  0  0  0
   -4.0659   -0.3069   -1.0363 H   0  0  0  0  0  0  0  0  0  0  0  0
   -4.2880   -1.9768   -0.4975 H   0  0  0  0  0  0  0  0  0  0  0  0
   -3.3969   -1.6855   -2.0330 H   0  0  0  0  0  0  0  0  0  0  0  0
  1  2  1  0
  1 11  1  0
  1 12  1  0
  1 13  1  0
  2  3  1  0
  2 14  1  0
  3  4  2  0
  3  5  1  0
  5  6  2  3
  5  7  1  0
  6 15  1  0
  6 16  1  0
  7  8  1  0
  7 17  1  0
  8  9  1  0
  8 10  2  0
  9 18  1  0
  9 19  1  0
  9 20  1  0
M  END

> <RosettaParamsInstructions>
M  ROOT 7
M  POLY_N_BB 7
M  POLY_CA_BB 5
M  POLY_C_BB 3
M  POLY_O_BB 4
M  POLY_IGNORE 1 10 9 14 11 12 13 18 19 20
M  POLY_UPPER 2
M  POLY_LOWER 8
M  POLY_CHG 0
M  POLY_PROPERTIES PROTEIN POLYMER ALPHA_AA ALIPHATIC
M  END

$$$$
DHA_new
     RDKit          3D

 20 19  0  0  0  0  0  0  0  0999 V2000
    2.6621   -1.0301    2.5869 C   0  0  0  0  0  0  0  0  0  0  0  0
    1.6890   -0.1855    1.8704 N   0  0  0  0  0  0  0  0  0  0  0  0
    0.5836   -0.8248    1.3282 C   0  0  0  0  0  0  0  0  0  0  0  0
    0.4044   -2.0814    1.4363 O   0  0  0  0  0  0  0  0  0  0  0  0
   -0.4561   -0.0754    0.5886 C   0  0  0  0  0  0  0  0  0  0  0  0
   -0.3128    1.2153    0.4535 C   0  0  0  0  0  0  0  0  0  0  0  0
   -1.5644   -0.8099    0.0609 N   0  0  0  0  0  0  0  0  0  0  0  0
   -2.6289   -0.2790   -0.6562 C   0  0  0  0  0  0  0  0  0  0  0  0
   -3.7404   -1.1581   -1.1611 C   0  0  0  0  0  0  0  0  0  0  0  0
   -2.7234    0.9338   -0.9180 O   0  0  0  0  0  0  0  0  0  0  0  0
    3.3878   -0.4231    3.1478 H   0  0  0  0  0  0  0  0  0  0  0  0
    2.0969   -1.7365    3.2259 H   0  0  0  0  0  0  0  0  0  0  0  0
    3.1935   -1.6359    1.8114 H   0  0  0  0  0  0  0  0  0  0  0  0
    1.8780    0.8162    1.8114 H   0  0  0  0  0  0  0  0  0  0  0  0
   -1.0032    1.8767   -0.0654 H   0  0  0  0  0  0  0  0  0  0  0  0
    0.5491    1.7055    0.8778 H   0  0  0  0  0  0  0  0  0  0  0  0
   -1.5756   -1.8619    0.2332 H   0  0  0  0  0  0  0  0  0  0  0  0
   -4.0023   -1.9178   -0.4088 H   0  0  0  0  0  0  0  0  0  0  0  0
   -3.3994   -1.6041   -2.1076 H   0  0  0  0  0  0  0  0  0  0  0  0
   -4.6444   -0.5762   -1.3744 H   0  0  0  0  0  0  0  0  0  0  0  0
  1  2  1  0
  1 11  1  0
  1 12  1  0
  1 13  1  0
  2  3  1  0
  2 14  1  0
  3  4  2  0
  3  5  1  0
  5  6  2  3
  5  7  1  0
  6 15  1  0
  6 16  1  0
  7  8  1  0
  7 17  1  0
  8  9  1  0
  8 10  2  0
  9 18  1  0
  9 19  1  0
  9 20  1  0
M  END

> <RosettaParamsInstructions>
M  ROOT 7
M  POLY_N_BB 7
M  POLY_CA_BB 5
M  POLY_C_BB 3
M  POLY_O_BB 4
M  POLY_IGNORE 1 10 9 14 11 12 13 18 19 20
M  POLY_UPPER 2
M  POLY_LOWER 8
M  POLY_CHG 0
M  POLY_PROPERTIES PROTEIN POLYMER ALPHA_AA ALIPHATIC
M  END

$$$$
DHA_new
     RDKit          3D

 20 19  0  0  0  0  0  0  0  0999 V2000
    2.5910   -1.0788    2.6731 C   0  0  0  0  0  0  0  0  0  0  0  0
    1.6898   -0.2207    1.8797 N   0  0  0  0  0  0  0  0  0  0  0  0
    0.5355   -0.7965    1.3458 C   0  0  0  0  0  0  0  0  0  0  0  0
    0.3148   -2.0371    1.5693 O   0  0  0  0  0  0  0  0  0  0  0  0
   -0.4507   -0.0567    0.5348 C   0  0  0  0  0  0  0  0  0  0  0  0
   -0.2262    1.2141    0.3049 C   0  0  0  0  0  0  0  0  0  0  0  0
   -1.5841   -0.7579    0.0496 N   0  0  0  0  0  0  0  0  0  0  0  0
   -2.6327   -0.2535   -0.7315 C   0  0  0  0  0  0  0  0  0  0  0  0
   -3.7453   -1.1849   -1.1378 C   0  0  0  0  0  0  0  0  0  0  0  0
   -2.6804    0.9286   -1.1009 O   0  0  0  0  0  0  0  0  0  0  0  0
    2.8831   -0.5687    3.6121 H   0  0  0  0  0  0  0  0  0  0  0  0
    2.1094   -2.0326    2.9037 H   0  0  0  0  0  0  0  0  0  0  0  0
    3.5190   -1.1771    2.0595 H   0  0  0  0  0  0  0  0  0  0  0  0
    1.9213    0.7679    1.7353 H   0  0  0  0  0  0  0  0  0  0  0  0
    0.6495    1.7380    0.6848 H   0  0  0  0  0  0  0  0  0  0  0  0
   -0.8825    1.8410   -0.2735 H   0  0  0  0  0  0  0  0  0  0  0  0
   -1.6271   -1.7952    0.3223 H   0  0  0  0  0  0  0  0  0  0  0  0
   -3.8542   -1.1124   -2.2247 H   0  0  0  0  0  0  0  0  0  0  0  0
   -3.4909   -2.2170   -0.8874 H   0  0  0  0  0  0  0  0  0  0  0  0
   -4.6459   -0.8524   -0.5783 H   0  0  0  0  0  0  0  0  0  0  0  0
  1  2  1  0
  1 11  1  0
  1 12  1  0
  1 13  1  0
  2  3  1  0
  2 14  1  0
  3  4  2  0
  3  5  1  0
  5  6  2  3
  5  7  1  0
  6 15  1  0
  6 16  1  0
  7  8  1  0
  7 17  1  0
  8  9  1  0
  8 10  2  0
  9 18  1  0
  9 19  1  0
  9 20  1  0
M  END

> <RosettaParamsInstructions>
M  ROOT 7
M  POLY_N_BB 7
M  POLY_CA_BB 5
M  POLY_C_BB 3
M  POLY_O_BB 4
M  POLY_IGNORE 1 10 9 14 11 12 13 18 19 20
M  POLY_UPPER 2
M  POLY_LOWER 8
M  POLY_CHG 0
M  POLY_PROPERTIES PROTEIN POLYMER ALPHA_AA ALIPHATIC
M  END

$$$$
DHA_new
     RDKit          3D

 20 19  0  0  0  0  0  0  0  0999 V2000
    2.6722   -1.0658    2.5729 C   0  0  0  0  0  0  0  0  0  0  0  0
    1.6999   -0.2155    1.8659 N   0  0  0  0  0  0  0  0  0  0  0  0
    0.5662   -0.8104    1.2999 C   0  0  0  0  0  0  0  0  0  0  0  0
    0.4284   -2.0761    1.4255 O   0  0  0  0  0  0  0  0  0  0  0  0
   -0.4715   -0.0510    0.5695 C   0  0  0  0  0  0  0  0  0  0  0  0
   -0.3186    1.2500    0.4470 C   0  0  0  0  0  0  0  0  0  0  0  0
   -1.5591   -0.7949    0.0547 N   0  0  0  0  0  0  0  0  0  0  0  0
   -2.6405   -0.2740   -0.6624 C   0  0  0  0  0  0  0  0  0  0  0  0
   -3.7475   -1.1614   -1.1651 C   0  0  0  0  0  0  0  0  0  0  0  0
   -2.7452    0.9283   -0.9194 O   0  0  0  0  0  0  0  0  0  0  0  0
    2.0650   -1.8799    3.0447 H   0  0  0  0  0  0  0  0  0  0  0  0
    3.1732   -0.4783    3.3419 H   0  0  0  0  0  0  0  0  0  0  0  0
    3.4062   -1.4591    1.8523 H   0  0  0  0  0  0  0  0  0  0  0  0
    1.9115    0.7883    1.8260 H   0  0  0  0  0  0  0  0  0  0  0  0
    0.5618    1.7342    0.8829 H   0  0  0  0  0  0  0  0  0  0  0  0
   -1.0059    1.9106   -0.0625 H   0  0  0  0  0  0  0  0  0  0  0  0
   -1.5600   -1.8396    0.2244 H   0  0  0  0  0  0  0  0  0  0  0  0
   -3.5038   -2.2070   -0.9100 H   0  0  0  0  0  0  0  0  0  0  0  0
   -3.8508   -1.0989   -2.2531 H   0  0  0  0  0  0  0  0  0  0  0  0
   -4.6879   -0.8519   -0.6942 H   0  0  0  0  0  0  0  0  0  0  0  0
  1  2  1  0
  1 11  1  0
  1 12  1  0
  1 13  1  0
  2  3  1  0
  2 14  1  0
  3  4  2  0
  3  5  1  0
  5  6  2  3
  5  7  1  0
  6 15  1  0
  6 16  1  0
  7  8  1  0
  7 17  1  0
  8  9  1  0
  8 10  2  0
  9 18  1  0
  9 19  1  0
  9 20  1  0
M  END

> <RosettaParamsInstructions>
M  ROOT 7
M  POLY_N_BB 7
M  POLY_CA_BB 5
M  POLY_C_BB 3
M  POLY_O_BB 4
M  POLY_IGNORE 1 10 9 14 11 12 13 18 19 20
M  POLY_UPPER 2
M  POLY_LOWER 8
M  POLY_CHG 0
M  POLY_PROPERTIES PROTEIN POLYMER ALPHA_AA ALIPHATIC
M  END

$$$$
DHA_new
     RDKit          3D

 20 19  0  0  0  0  0  0  0  0999 V2000
    2.6685   -1.1025    2.5953 C   0  0  0  0  0  0  0  0  0  0  0  0
    1.7104   -0.2158    1.8847 N   0  0  0  0  0  0  0  0  0  0  0  0
    0.5726   -0.8008    1.3105 C   0  0  0  0  0  0  0  0  0  0  0  0
    0.3889   -2.0538    1.4086 O   0  0  0  0  0  0  0  0  0  0  0  0
   -0.4510   -0.0444    0.5828 C   0  0  0  0  0  0  0  0  0  0  0  0
   -0.2947    1.2497    0.4618 C   0  0  0  0  0  0  0  0  0  0  0  0
   -1.5733   -0.7498    0.0376 N   0  0  0  0  0  0  0  0  0  0  0  0
   -2.6467   -0.2515   -0.6770 C   0  0  0  0  0  0  0  0  0  0  0  0
   -3.7263   -1.1879   -1.1591 C   0  0  0  0  0  0  0  0  0  0  0  0
   -2.7937    0.9551   -0.9624 O   0  0  0  0  0  0  0  0  0  0  0  0
    2.3722   -1.0726    3.6459 H   0  0  0  0  0  0  0  0  0  0  0  0
    2.6115   -2.0829    2.1113 H   0  0  0  0  0  0  0  0  0  0  0  0
    3.7022   -0.6816    2.4555 H   0  0  0  0  0  0  0  0  0  0  0  0
    1.9196    0.8017    1.8405 H   0  0  0  0  0  0  0  0  0  0  0  0
   -1.0247    1.8595   -0.0688 H   0  0  0  0  0  0  0  0  0  0  0  0
    0.5714    1.7320    0.8928 H   0  0  0  0  0  0  0  0  0  0  0  0
   -1.5471   -1.7999    0.2260 H   0  0  0  0  0  0  0  0  0  0  0  0
   -4.1838   -0.7909   -2.0868 H   0  0  0  0  0  0  0  0  0  0  0  0
   -4.5433   -1.2261   -0.3969 H   0  0  0  0  0  0  0  0  0  0  0  0
   -3.3393   -2.1898   -1.3614 H   0  0  0  0  0  0  0  0  0  0  0  0
  1  2  1  0
  1 11  1  0
  1 12  1  0
  1 13  1  0
  2  3  1  0
  2 14  1  0
  3  4  2  0
  3  5  1  0
  5  6  2  3
  5  7  1  0
  6 15  1  0
  6 16  1  0
  7  8  1  0
  7 17  1  0
  8  9  1  0
  8 10  2  0
  9 18  1  0
  9 19  1  0
  9 20  1  0
M  END

> <RosettaParamsInstructions>
M  ROOT 7
M  POLY_N_BB 7
M  POLY_CA_BB 5
M  POLY_C_BB 3
M  POLY_O_BB 4
M  POLY_IGNORE 1 10 9 14 11 12 13 18 19 20
M  POLY_UPPER 2
M  POLY_LOWER 8
M  POLY_CHG 0
M  POLY_PROPERTIES PROTEIN POLYMER ALPHA_AA ALIPHATIC
M  END

$$$$
DHA_new
     RDKit          3D

 20 19  0  0  0  0  0  0  0  0999 V2000
    2.7027   -1.0690    2.5096 C   0  0  0  0  0  0  0  0  0  0  0  0
    1.7063   -0.2162    1.8607 N   0  0  0  0  0  0  0  0  0  0  0  0
    0.5849   -0.8075    1.2724 C   0  0  0  0  0  0  0  0  0  0  0  0
    0.4395   -2.0645    1.3043 O   0  0  0  0  0  0  0  0  0  0  0  0
   -0.4830   -0.0486    0.5911 C   0  0  0  0  0  0  0  0  0  0  0  0
   -0.3637    1.2523    0.5402 C   0  0  0  0  0  0  0  0  0  0  0  0
   -1.5859   -0.7546    0.0240 N   0  0  0  0  0  0  0  0  0  0  0  0
   -2.6856   -0.2495   -0.6523 C   0  0  0  0  0  0  0  0  0  0  0  0
   -3.7495   -1.1749   -1.1770 C   0  0  0  0  0  0  0  0  0  0  0  0
   -2.8334    0.9772   -0.8494 O   0  0  0  0  0  0  0  0  0  0  0  0
    3.7233   -0.6984    2.3871 H   0  0  0  0  0  0  0  0  0  0  0  0
    2.6418   -2.0759    2.0586 H   0  0  0  0  0  0  0  0  0  0  0  0
    2.5036   -1.1206    3.6039 H   0  0  0  0  0  0  0  0  0  0  0  0
    1.9195    0.7924    1.8903 H   0  0  0  0  0  0  0  0  0  0  0  0
   -1.0836    1.9169    0.0669 H   0  0  0  0  0  0  0  0  0  0  0  0
    0.5026    1.7297    0.9928 H   0  0  0  0  0  0  0  0  0  0  0  0
   -1.5403   -1.8079    0.1466 H   0  0  0  0  0  0  0  0  0  0  0  0
   -4.6610   -0.9788   -0.5704 H   0  0  0  0  0  0  0  0  0  0  0  0
   -3.9050   -1.0373   -2.2539 H   0  0  0  0  0  0  0  0  0  0  0  0
   -3.4398   -2.2167   -1.0044 H   0  0  0  0  0  0  0  0  0  0  0  0
  1  2  1  0
  1 11  1  0
  1 12  1  0
  1 13  1  0
  2  3  1  0
  2 14  1  0
  3  4  2  0
  3  5  1  0
  5  6  2  3
  5  7  1  0
  6 15  1  0
  6 16  1  0
  7  8  1  0
  7 17  1  0
  8  9  1  0
  8 10  2  0
  9 18  1  0
  9 19  1  0
  9 20  1  0
M  END

> <RosettaParamsInstructions>
M  ROOT 7
M  POLY_N_BB 7
M  POLY_CA_BB 5
M  POLY_C_BB 3
M  POLY_O_BB 4
M  POLY_IGNORE 1 10 9 14 11 12 13 18 19 20
M  POLY_UPPER 2
M  POLY_LOWER 8
M  POLY_CHG 0
M  POLY_PROPERTIES PROTEIN POLYMER ALPHA_AA ALIPHATIC
M  END

$$$$
DHA_new
     RDKit          3D

 20 19  0  0  0  0  0  0  0  0999 V2000
    2.2971   -1.6002    2.3692 C   0  0  0  0  0  0  0  0  0  0  0  0
    1.0914   -1.2201    1.6263 N   0  0  0  0  0  0  0  0  0  0  0  0
    0.8312    0.1083    1.3130 C   0  0  0  0  0  0  0  0  0  0  0  0
    1.6749    0.9850    1.6924 O   0  0  0  0  0  0  0  0  0  0  0  0
   -0.3710    0.5151    0.5689 C   0  0  0  0  0  0  0  0  0  0  0  0
   -0.5350    1.8183    0.3142 C   0  0  0  0  0  0  0  0  0  0  0  0
   -1.2870   -0.4620    0.1600 N   0  0  0  0  0  0  0  0  0  0  0  0
   -2.4746   -0.2573   -0.5510 C   0  0  0  0  0  0  0  0  0  0  0  0
   -3.3501   -1.4296   -0.9125 C   0  0  0  0  0  0  0  0  0  0  0  0
   -2.8788    0.8436   -0.9196 O   0  0  0  0  0  0  0  0  0  0  0  0
    3.1573   -1.6452    1.6844 H   0  0  0  0  0  0  0  0  0  0  0  0
    2.5339   -0.8120    3.1364 H   0  0  0  0  0  0  0  0  0  0  0  0
    2.1280   -2.5354    2.9407 H   0  0  0  0  0  0  0  0  0  0  0  0
    0.4718   -2.0032    1.3648 H   0  0  0  0  0  0  0  0  0  0  0  0
    0.2215    2.5202    0.6647 H   0  0  0  0  0  0  0  0  0  0  0  0
   -1.3644    2.1709   -0.2080 H   0  0  0  0  0  0  0  0  0  0  0  0
   -1.0631   -1.4858    0.4150 H   0  0  0  0  0  0  0  0  0  0  0  0
   -4.3989   -1.1261   -0.7913 H   0  0  0  0  0  0  0  0  0  0  0  0
   -3.1199   -1.7837   -1.9384 H   0  0  0  0  0  0  0  0  0  0  0  0
   -3.1706   -2.2530   -0.1884 H   0  0  0  0  0  0  0  0  0  0  0  0
  1  2  1  0
  1 11  1  0
  1 12  1  0
  1 13  1  0
  2  3  1  0
  2 14  1  0
  3  4  2  0
  3  5  1  0
  5  6  2  3
  5  7  1  0
  6 15  1  0
  6 16  1  0
  7  8  1  0
  7 17  1  0
  8  9  1  0
  8 10  2  0
  9 18  1  0
  9 19  1  0
  9 20  1  0
M  END

> <RosettaParamsInstructions>
M  ROOT 7
M  POLY_N_BB 7
M  POLY_CA_BB 5
M  POLY_C_BB 3
M  POLY_O_BB 4
M  POLY_IGNORE 1 10 9 14 11 12 13 18 19 20
M  POLY_UPPER 2
M  POLY_LOWER 8
M  POLY_CHG 0
M  POLY_PROPERTIES PROTEIN POLYMER ALPHA_AA ALIPHATIC
M  END

$$$$
DHA_new
     RDKit          3D

 20 19  0  0  0  0  0  0  0  0999 V2000
    2.6811   -1.1042    2.5249 C   0  0  0  0  0  0  0  0  0  0  0  0
    1.7304   -0.2156    1.8282 N   0  0  0  0  0  0  0  0  0  0  0  0
    0.5769   -0.8126    1.2931 C   0  0  0  0  0  0  0  0  0  0  0  0
    0.3957   -2.0672    1.4241 O   0  0  0  0  0  0  0  0  0  0  0  0
   -0.4527   -0.0519    0.5758 C   0  0  0  0  0  0  0  0  0  0  0  0
   -0.3294    1.2302    0.4074 C   0  0  0  0  0  0  0  0  0  0  0  0
   -1.5755   -0.7404    0.0748 N   0  0  0  0  0  0  0  0  0  0  0  0
   -2.6568   -0.2107   -0.6287 C   0  0  0  0  0  0  0  0  0  0  0  0
   -3.7504   -1.1765   -1.0620 C   0  0  0  0  0  0  0  0  0  0  0  0
   -2.8436    0.9820   -0.9542 O   0  0  0  0  0  0  0  0  0  0  0  0
    2.6403   -2.1214    2.0801 H   0  0  0  0  0  0  0  0  0  0  0  0
    2.4636   -1.1652    3.5998 H   0  0  0  0  0  0  0  0  0  0  0  0
    3.6697   -0.6640    2.3963 H   0  0  0  0  0  0  0  0  0  0  0  0
    1.9390    0.7963    1.7575 H   0  0  0  0  0  0  0  0  0  0  0  0
    0.5597    1.7450    0.8097 H   0  0  0  0  0  0  0  0  0  0  0  0
   -1.0298    1.8702   -0.1032 H   0  0  0  0  0  0  0  0  0  0  0  0
   -1.5756   -1.7901    0.2692 H   0  0  0  0  0  0  0  0  0  0  0  0
   -3.6830   -2.1104   -0.4813 H   0  0  0  0  0  0  0  0  0  0  0  0
   -4.7109   -0.6585   -0.9151 H   0  0  0  0  0  0  0  0  0  0  0  0
   -3.6551   -1.3871   -2.1553 H   0  0  0  0  0  0  0  0  0  0  0  0
  1  2  1  0
  1 11  1  0
  1 12  1  0
  1 13  1  0
  2  3  1  0
  2 14  1  0
  3  4  2  0
  3  5  1  0
  5  6  2  3
  5  7  1  0
  6 15  1  0
  6 16  1  0
  7  8  1  0
  7 17  1  0
  8  9  1  0
  8 10  2  0
  9 18  1  0
  9 19  1  0
  9 20  1  0
M  END

> <RosettaParamsInstructions>
M  ROOT 7
M  POLY_N_BB 7
M  POLY_CA_BB 5
M  POLY_C_BB 3
M  POLY_O_BB 4
M  POLY_IGNORE 1 10 9 14 11 12 13 18 19 20
M  POLY_UPPER 2
M  POLY_LOWER 8
M  POLY_CHG 0
M  POLY_PROPERTIES PROTEIN POLYMER ALPHA_AA ALIPHATIC
M  END

$$$$
DHA_new
     RDKit          3D

 20 19  0  0  0  0  0  0  0  0999 V2000
    2.6668   -1.0816    2.5670 C   0  0  0  0  0  0  0  0  0  0  0  0
    1.6815   -0.2005    1.8916 N   0  0  0  0  0  0  0  0  0  0  0  0
    0.5738   -0.8248    1.2982 C   0  0  0  0  0  0  0  0  0  0  0  0
    0.4586   -2.0975    1.3604 O   0  0  0  0  0  0  0  0  0  0  0  0
   -0.4595   -0.0465    0.6049 C   0  0  0  0  0  0  0  0  0  0  0  0
   -0.3535    1.2403    0.5357 C   0  0  0  0  0  0  0  0  0  0  0  0
   -1.5410   -0.7489    0.0351 N   0  0  0  0  0  0  0  0  0  0  0  0
   -2.6332   -0.2234   -0.6672 C   0  0  0  0  0  0  0  0  0  0  0  0
   -3.6917   -1.1810   -1.1971 C   0  0  0  0  0  0  0  0  0  0  0  0
   -2.8394    0.9767   -0.9127 O   0  0  0  0  0  0  0  0  0  0  0  0
    2.1343   -1.4468    3.4804 H   0  0  0  0  0  0  0  0  0  0  0  0
    3.5549   -0.4967    2.8127 H   0  0  0  0  0  0  0  0  0  0  0  0
    2.8563   -1.8988    1.8532 H   0  0  0  0  0  0  0  0  0  0  0  0
    1.8508    0.8218    1.8872 H   0  0  0  0  0  0  0  0  0  0  0  0
    0.4683    1.7633    0.9699 H   0  0  0  0  0  0  0  0  0  0  0  0
   -1.0859    1.8436    0.0390 H   0  0  0  0  0  0  0  0  0  0  0  0
   -1.4986   -1.8159    0.1697 H   0  0  0  0  0  0  0  0  0  0  0  0
   -4.1936   -0.7491   -2.0817 H   0  0  0  0  0  0  0  0  0  0  0  0
   -4.3789   -1.3782   -0.3547 H   0  0  0  0  0  0  0  0  0  0  0  0
   -3.1763   -2.1082   -1.5507 H   0  0  0  0  0  0  0  0  0  0  0  0
  1  2  1  0
  1 11  1  0
  1 12  1  0
  1 13  1  0
  2  3  1  0
  2 14  1  0
  3  4  2  0
  3  5  1  0
  5  6  2  3
  5  7  1  0
  6 15  1  0
  6 16  1  0
  7  8  1  0
  7 17  1  0
  8  9  1  0
  8 10  2  0
  9 18  1  0
  9 19  1  0
  9 20  1  0
M  END

> <RosettaParamsInstructions>
M  ROOT 7
M  POLY_N_BB 7
M  POLY_CA_BB 5
M  POLY_C_BB 3
M  POLY_O_BB 4
M  POLY_IGNORE 1 10 9 14 11 12 13 18 19 20
M  POLY_UPPER 2
M  POLY_LOWER 8
M  POLY_CHG 0
M  POLY_PROPERTIES PROTEIN POLYMER ALPHA_AA ALIPHATIC
M  END

$$$$
DHA_new
     RDKit          3D

 20 19  0  0  0  0  0  0  0  0999 V2000
    2.6319   -1.0771    2.5462 C   0  0  0  0  0  0  0  0  0  0  0  0
    1.6724   -0.2442    1.8485 N   0  0  0  0  0  0  0  0  0  0  0  0
    0.5476   -0.8203    1.2856 C   0  0  0  0  0  0  0  0  0  0  0  0
    0.3587   -2.0566    1.3784 O   0  0  0  0  0  0  0  0  0  0  0  0
   -0.4359   -0.0217    0.5794 C   0  0  0  0  0  0  0  0  0  0  0  0
   -0.2964    1.2927    0.4450 C   0  0  0  0  0  0  0  0  0  0  0  0
   -1.5543   -0.7232    0.0409 N   0  0  0  0  0  0  0  0  0  0  0  0
   -2.6371   -0.2317   -0.6728 C   0  0  0  0  0  0  0  0  0  0  0  0
   -3.6953   -1.1625   -1.1384 C   0  0  0  0  0  0  0  0  0  0  0  0
   -2.7748    0.9668   -0.9503 O   0  0  0  0  0  0  0  0  0  0  0  0
    3.0511   -1.8741    1.8995 H   0  0  0  0  0  0  0  0  0  0  0  0
    3.4578   -0.4847    2.9648 H   0  0  0  0  0  0  0  0  0  0  0  0
    2.1091   -1.5563    3.4049 H   0  0  0  0  0  0  0  0  0  0  0  0
    1.8689    0.7581    1.7985 H   0  0  0  0  0  0  0  0  0  0  0  0
   -1.0028    1.9020   -0.0681 H   0  0  0  0  0  0  0  0  0  0  0  0
    0.5688    1.7877    0.8694 H   0  0  0  0  0  0  0  0  0  0  0  0
   -1.5525   -1.7768    0.2152 H   0  0  0  0  0  0  0  0  0  0  0  0
   -4.6608   -0.9243   -0.6342 H   0  0  0  0  0  0  0  0  0  0  0  0
   -3.4534   -2.2224   -0.8400 H   0  0  0  0  0  0  0  0  0  0  0  0
   -3.8096   -1.1838   -2.2316 H   0  0  0  0  0  0  0  0  0  0  0  0
  1  2  1  0
  1 11  1  0
  1 12  1  0
  1 13  1  0
  2  3  1  0
  2 14  1  0
  3  4  2  0
  3  5  1  0
  5  6  2  3
  5  7  1  0
  6 15  1  0
  6 16  1  0
  7  8  1  0
  7 17  1  0
  8  9  1  0
  8 10  2  0
  9 18  1  0
  9 19  1  0
  9 20  1  0
M  END

> <RosettaParamsInstructions>
M  ROOT 7
M  POLY_N_BB 7
M  POLY_CA_BB 5
M  POLY_C_BB 3
M  POLY_O_BB 4
M  POLY_IGNORE 1 10 9 14 11 12 13 18 19 20
M  POLY_UPPER 2
M  POLY_LOWER 8
M  POLY_CHG 0
M  POLY_PROPERTIES PROTEIN POLYMER ALPHA_AA ALIPHATIC
M  END

$$$$
DHA_new
     RDKit          3D

 20 19  0  0  0  0  0  0  0  0999 V2000
    2.6695   -1.0626    2.5758 C   0  0  0  0  0  0  0  0  0  0  0  0
    1.6923   -0.2482    1.8646 N   0  0  0  0  0  0  0  0  0  0  0  0
    0.5613   -0.8482    1.3128 C   0  0  0  0  0  0  0  0  0  0  0  0
    0.3694   -2.1081    1.4229 O   0  0  0  0  0  0  0  0  0  0  0  0
   -0.4644   -0.0815    0.5819 C   0  0  0  0  0  0  0  0  0  0  0  0
   -0.3041    1.2162    0.4468 C   0  0  0  0  0  0  0  0  0  0  0  0
   -1.5834   -0.7667    0.0521 N   0  0  0  0  0  0  0  0  0  0  0  0
   -2.6530   -0.2294   -0.6640 C   0  0  0  0  0  0  0  0  0  0  0  0
   -3.7453   -1.1439   -1.1380 C   0  0  0  0  0  0  0  0  0  0  0  0
   -2.7898    0.9692   -0.9543 O   0  0  0  0  0  0  0  0  0  0  0  0
    3.0835   -1.8237    1.8734 H   0  0  0  0  0  0  0  0  0  0  0  0
    3.4873   -0.4192    2.9402 H   0  0  0  0  0  0  0  0  0  0  0  0
    2.2029   -1.5317    3.4583 H   0  0  0  0  0  0  0  0  0  0  0  0
    1.8675    0.7623    1.7887 H   0  0  0  0  0  0  0  0  0  0  0  0
   -1.0111    1.8337   -0.0727 H   0  0  0  0  0  0  0  0  0  0  0  0
    0.5464    1.7777    0.8424 H   0  0  0  0  0  0  0  0  0  0  0  0
   -1.5803   -1.8178    0.2387 H   0  0  0  0  0  0  0  0  0  0  0  0
   -4.4852   -0.5488   -1.6719 H   0  0  0  0  0  0  0  0  0  0  0  0
   -4.1879   -1.7179   -0.3110 H   0  0  0  0  0  0  0  0  0  0  0  0
   -3.2820   -1.8637   -1.8458 H   0  0  0  0  0  0  0  0  0  0  0  0
  1  2  1  0
  1 11  1  0
  1 12  1  0
  1 13  1  0
  2  3  1  0
  2 14  1  0
  3  4  2  0
  3  5  1  0
  5  6  2  3
  5  7  1  0
  6 15  1  0
  6 16  1  0
  7  8  1  0
  7 17  1  0
  8  9  1  0
  8 10  2  0
  9 18  1  0
  9 19  1  0
  9 20  1  0
M  END

> <RosettaParamsInstructions>
M  ROOT 7
M  POLY_N_BB 7
M  POLY_CA_BB 5
M  POLY_C_BB 3
M  POLY_O_BB 4
M  POLY_IGNORE 1 10 9 14 11 12 13 18 19 20
M  POLY_UPPER 2
M  POLY_LOWER 8
M  POLY_CHG 0
M  POLY_PROPERTIES PROTEIN POLYMER ALPHA_AA ALIPHATIC
M  END

$$$$
DHA_new
     RDKit          3D

 20 19  0  0  0  0  0  0  0  0999 V2000
    2.6724   -1.0358    2.5835 C   0  0  0  0  0  0  0  0  0  0  0  0
    1.7069   -0.2372    1.8131 N   0  0  0  0  0  0  0  0  0  0  0  0
    0.5457   -0.8404    1.3217 C   0  0  0  0  0  0  0  0  0  0  0  0
    0.3329   -2.0823    1.5466 O   0  0  0  0  0  0  0  0  0  0  0  0
   -0.4267   -0.0762    0.5570 C   0  0  0  0  0  0  0  0  0  0  0  0
   -0.2223    1.1881    0.3211 C   0  0  0  0  0  0  0  0  0  0  0  0
   -1.5674   -0.7786    0.1049 N   0  0  0  0  0  0  0  0  0  0  0  0
   -2.6321   -0.2409   -0.6491 C   0  0  0  0  0  0  0  0  0  0  0  0
   -3.7963   -1.1181   -1.0658 C   0  0  0  0  0  0  0  0  0  0  0  0
   -2.7332    0.9409   -1.0355 O   0  0  0  0  0  0  0  0  0  0  0  0
    3.3089   -1.5928    1.8762 H   0  0  0  0  0  0  0  0  0  0  0  0
    2.1286   -1.8131    3.1836 H   0  0  0  0  0  0  0  0  0  0  0  0
    3.2521   -0.4063    3.2778 H   0  0  0  0  0  0  0  0  0  0  0  0
    1.9249    0.7495    1.6621 H   0  0  0  0  0  0  0  0  0  0  0  0
   -0.9101    1.8216   -0.2458 H   0  0  0  0  0  0  0  0  0  0  0  0
    0.6592    1.7588    0.6626 H   0  0  0  0  0  0  0  0  0  0  0  0
   -1.6561   -1.8157    0.3433 H   0  0  0  0  0  0  0  0  0  0  0  0
   -4.6473   -0.9977   -0.3804 H   0  0  0  0  0  0  0  0  0  0  0  0
   -3.4991   -2.1927   -1.0366 H   0  0  0  0  0  0  0  0  0  0  0  0
   -4.0475   -0.8833   -2.0995 H   0  0  0  0  0  0  0  0  0  0  0  0
  1  2  1  0
  1 11  1  0
  1 12  1  0
  1 13  1  0
  2  3  1  0
  2 14  1  0
  3  4  2  0
  3  5  1  0
  5  6  2  3
  5  7  1  0
  6 15  1  0
  6 16  1  0
  7  8  1  0
  7 17  1  0
  8  9  1  0
  8 10  2  0
  9 18  1  0
  9 19  1  0
  9 20  1  0
M  END

> <RosettaParamsInstructions>
M  ROOT 7
M  POLY_N_BB 7
M  POLY_CA_BB 5
M  POLY_C_BB 3
M  POLY_O_BB 4
M  POLY_IGNORE 1 10 9 14 11 12 13 18 19 20
M  POLY_UPPER 2
M  POLY_LOWER 8
M  POLY_CHG 0
M  POLY_PROPERTIES PROTEIN POLYMER ALPHA_AA ALIPHATIC
M  END

$$$$
DHA_new
     RDKit          3D

 20 19  0  0  0  0  0  0  0  0999 V2000
    2.6567   -1.0621    2.5717 C   0  0  0  0  0  0  0  0  0  0  0  0
    1.6836   -0.2302    1.8672 N   0  0  0  0  0  0  0  0  0  0  0  0
    0.5724   -0.8428    1.3156 C   0  0  0  0  0  0  0  0  0  0  0  0
    0.3815   -2.0923    1.4061 O   0  0  0  0  0  0  0  0  0  0  0  0
   -0.4651   -0.0788    0.5845 C   0  0  0  0  0  0  0  0  0  0  0  0
   -0.3176    1.2140    0.4616 C   0  0  0  0  0  0  0  0  0  0  0  0
   -1.5615   -0.7694    0.0542 N   0  0  0  0  0  0  0  0  0  0  0  0
   -2.6249   -0.2299   -0.6558 C   0  0  0  0  0  0  0  0  0  0  0  0
   -3.7189   -1.1525   -1.1472 C   0  0  0  0  0  0  0  0  0  0  0  0
   -2.7987    0.9584   -0.9499 O   0  0  0  0  0  0  0  0  0  0  0  0
    3.5708   -0.4855    2.7997 H   0  0  0  0  0  0  0  0  0  0  0  0
    2.1818   -1.4119    3.4963 H   0  0  0  0  0  0  0  0  0  0  0  0
    2.9525   -1.8915    1.8964 H   0  0  0  0  0  0  0  0  0  0  0  0
    1.8548    0.7816    1.8038 H   0  0  0  0  0  0  0  0  0  0  0  0
   -1.0352    1.8008   -0.0536 H   0  0  0  0  0  0  0  0  0  0  0  0
    0.5258    1.7839    0.8633 H   0  0  0  0  0  0  0  0  0  0  0  0
   -1.5894   -1.8297    0.2094 H   0  0  0  0  0  0  0  0  0  0  0  0
   -3.3242   -2.1686   -1.1955 H   0  0  0  0  0  0  0  0  0  0  0  0
   -4.5341   -1.1118   -0.4165 H   0  0  0  0  0  0  0  0  0  0  0  0
   -4.0169   -0.8339   -2.1705 H   0  0  0  0  0  0  0  0  0  0  0  0
  1  2  1  0
  1 11  1  0
  1 12  1  0
  1 13  1  0
  2  3  1  0
  2 14  1  0
  3  4  2  0
  3  5  1  0
  5  6  2  3
  5  7  1  0
  6 15  1  0
  6 16  1  0
  7  8  1  0
  7 17  1  0
  8  9  1  0
  8 10  2  0
  9 18  1  0
  9 19  1  0
  9 20  1  0
M  END

> <RosettaParamsInstructions>
M  ROOT 7
M  POLY_N_BB 7
M  POLY_CA_BB 5
M  POLY_C_BB 3
M  POLY_O_BB 4
M  POLY_IGNORE 1 10 9 14 11 12 13 18 19 20
M  POLY_UPPER 2
M  POLY_LOWER 8
M  POLY_CHG 0
M  POLY_PROPERTIES PROTEIN POLYMER ALPHA_AA ALIPHATIC
M  END

$$$$
DHA_new
     RDKit          3D

 20 19  0  0  0  0  0  0  0  0999 V2000
    2.6603   -1.0498    2.6402 C   0  0  0  0  0  0  0  0  0  0  0  0
    1.6540   -0.2668    1.9122 N   0  0  0  0  0  0  0  0  0  0  0  0
    0.5439   -0.8638    1.3161 C   0  0  0  0  0  0  0  0  0  0  0  0
    0.3811   -2.0981    1.3912 O   0  0  0  0  0  0  0  0  0  0  0  0
   -0.4731   -0.0836    0.5819 C   0  0  0  0  0  0  0  0  0  0  0  0
   -0.3770    1.2141    0.4569 C   0  0  0  0  0  0  0  0  0  0  0  0
   -1.5773   -0.7822    0.0039 N   0  0  0  0  0  0  0  0  0  0  0  0
   -2.6072   -0.2146   -0.7081 C   0  0  0  0  0  0  0  0  0  0  0  0
   -3.6827   -1.1609   -1.2334 C   0  0  0  0  0  0  0  0  0  0  0  0
   -2.7553    0.9895   -0.9696 O   0  0  0  0  0  0  0  0  0  0  0  0
    2.5429   -0.8496    3.7250 H   0  0  0  0  0  0  0  0  0  0  0  0
    3.6546   -0.6569    2.3443 H   0  0  0  0  0  0  0  0  0  0  0  0
    2.5510   -2.1284    2.4656 H   0  0  0  0  0  0  0  0  0  0  0  0
    1.8299    0.7421    1.8771 H   0  0  0  0  0  0  0  0  0  0  0  0
    0.5005    1.7135    0.9242 H   0  0  0  0  0  0  0  0  0  0  0  0
   -1.0754    1.8125   -0.0562 H   0  0  0  0  0  0  0  0  0  0  0  0
   -1.5935   -1.8687    0.1479 H   0  0  0  0  0  0  0  0  0  0  0  0
   -4.1524   -0.6997   -2.1147 H   0  0  0  0  0  0  0  0  0  0  0  0
   -3.1715   -2.1054   -1.5098 H   0  0  0  0  0  0  0  0  0  0  0  0
   -4.4593   -1.2953   -0.4539 H   0  0  0  0  0  0  0  0  0  0  0  0
  1  2  1  0
  1 11  1  0
  1 12  1  0
  1 13  1  0
  2  3  1  0
  2 14  1  0
  3  4  2  0
  3  5  1  0
  5  6  2  3
  5  7  1  0
  6 15  1  0
  6 16  1  0
  7  8  1  0
  7 17  1  0
  8  9  1  0
  8 10  2  0
  9 18  1  0
  9 19  1  0
  9 20  1  0
M  END

> <RosettaParamsInstructions>
M  ROOT 7
M  POLY_N_BB 7
M  POLY_CA_BB 5
M  POLY_C_BB 3
M  POLY_O_BB 4
M  POLY_IGNORE 1 10 9 14 11 12 13 18 19 20
M  POLY_UPPER 2
M  POLY_LOWER 8
M  POLY_CHG 0
M  POLY_PROPERTIES PROTEIN POLYMER ALPHA_AA ALIPHATIC
M  END

$$$$
DHA_new
     RDKit          3D

 20 19  0  0  0  0  0  0  0  0999 V2000
    2.6760   -1.0803    2.5673 C   0  0  0  0  0  0  0  0  0  0  0  0
    1.6749   -0.2422    1.8548 N   0  0  0  0  0  0  0  0  0  0  0  0
    0.5388   -0.8450    1.2909 C   0  0  0  0  0  0  0  0  0  0  0  0
    0.3598   -2.0986    1.3846 O   0  0  0  0  0  0  0  0  0  0  0  0
   -0.4653   -0.0619    0.5854 C   0  0  0  0  0  0  0  0  0  0  0  0
   -0.3244    1.2433    0.4616 C   0  0  0  0  0  0  0  0  0  0  0  0
   -1.5796   -0.7731    0.0513 N   0  0  0  0  0  0  0  0  0  0  0  0
   -2.6383   -0.2440   -0.6458 C   0  0  0  0  0  0  0  0  0  0  0  0
   -3.7292   -1.1635   -1.1334 C   0  0  0  0  0  0  0  0  0  0  0  0
   -2.7895    0.9449   -0.9207 O   0  0  0  0  0  0  0  0  0  0  0  0
    3.6613   -0.7534    2.1922 H   0  0  0  0  0  0  0  0  0  0  0  0
    2.5660   -0.8157    3.6353 H   0  0  0  0  0  0  0  0  0  0  0  0
    2.4744   -2.1296    2.3334 H   0  0  0  0  0  0  0  0  0  0  0  0
    1.9015    0.7554    1.8291 H   0  0  0  0  0  0  0  0  0  0  0  0
    0.5630    1.7106    0.9026 H   0  0  0  0  0  0  0  0  0  0  0  0
   -1.0418    1.8631   -0.0519 H   0  0  0  0  0  0  0  0  0  0  0  0
   -1.5730   -1.8344    0.2223 H   0  0  0  0  0  0  0  0  0  0  0  0
   -3.2990   -2.1762   -1.2067 H   0  0  0  0  0  0  0  0  0  0  0  0
   -4.6107   -1.1129   -0.4532 H   0  0  0  0  0  0  0  0  0  0  0  0
   -3.9713   -0.8387   -2.1584 H   0  0  0  0  0  0  0  0  0  0  0  0
  1  2  1  0
  1 11  1  0
  1 12  1  0
  1 13  1  0
  2  3  1  0
  2 14  1  0
  3  4  2  0
  3  5  1  0
  5  6  2  3
  5  7  1  0
  6 15  1  0
  6 16  1  0
  7  8  1  0
  7 17  1  0
  8  9  1  0
  8 10  2  0
  9 18  1  0
  9 19  1  0
  9 20  1  0
M  END

> <RosettaParamsInstructions>
M  ROOT 7
M  POLY_N_BB 7
M  POLY_CA_BB 5
M  POLY_C_BB 3
M  POLY_O_BB 4
M  POLY_IGNORE 1 10 9 14 11 12 13 18 19 20
M  POLY_UPPER 2
M  POLY_LOWER 8
M  POLY_CHG 0
M  POLY_PROPERTIES PROTEIN POLYMER ALPHA_AA ALIPHATIC
M  END

$$$$
DHA_new
     RDKit          3D

 20 19  0  0  0  0  0  0  0  0999 V2000
    2.2911   -1.6209    2.3598 C   0  0  0  0  0  0  0  0  0  0  0  0
    1.0864   -1.2282    1.6164 N   0  0  0  0  0  0  0  0  0  0  0  0
    0.7813    0.1121    1.3718 C   0  0  0  0  0  0  0  0  0  0  0  0
    1.5743    0.9921    1.8093 O   0  0  0  0  0  0  0  0  0  0  0  0
   -0.4044    0.5176    0.6393 C   0  0  0  0  0  0  0  0  0  0  0  0
   -0.6029    1.8101    0.4610 C   0  0  0  0  0  0  0  0  0  0  0  0
   -1.2897   -0.4395    0.1497 N   0  0  0  0  0  0  0  0  0  0  0  0
   -2.4743   -0.2024   -0.5745 C   0  0  0  0  0  0  0  0  0  0  0  0
   -3.2555   -1.4476   -0.9882 C   0  0  0  0  0  0  0  0  0  0  0  0
   -2.9364    0.9115   -0.9034 O   0  0  0  0  0  0  0  0  0  0  0  0
    2.7088   -0.7257    2.8543 H   0  0  0  0  0  0  0  0  0  0  0  0
    3.0132   -2.0203    1.6281 H   0  0  0  0  0  0  0  0  0  0  0  0
    1.9679   -2.3471    3.1207 H   0  0  0  0  0  0  0  0  0  0  0  0
    0.5119   -2.0358    1.3072 H   0  0  0  0  0  0  0  0  0  0  0  0
   -1.4436    2.1782   -0.0620 H   0  0  0  0  0  0  0  0  0  0  0  0
    0.1179    2.5382    0.8619 H   0  0  0  0  0  0  0  0  0  0  0  0
   -1.0402   -1.4522    0.3460 H   0  0  0  0  0  0  0  0  0  0  0  0
   -3.2187   -2.1338   -0.1323 H   0  0  0  0  0  0  0  0  0  0  0  0
   -2.7268   -1.9066   -1.8296 H   0  0  0  0  0  0  0  0  0  0  0  0
   -4.2665   -1.1519   -1.2945 H   0  0  0  0  0  0  0  0  0  0  0  0
  1  2  1  0
  1 11  1  0
  1 12  1  0
  1 13  1  0
  2  3  1  0
  2 14  1  0
  3  4  2  0
  3  5  1  0
  5  6  2  3
  5  7  1  0
  6 15  1  0
  6 16  1  0
  7  8  1  0
  7 17  1  0
  8  9  1  0
  8 10  2  0
  9 18  1  0
  9 19  1  0
  9 20  1  0
M  END

> <RosettaParamsInstructions>
M  ROOT 7
M  POLY_N_BB 7
M  POLY_CA_BB 5
M  POLY_C_BB 3
M  POLY_O_BB 4
M  POLY_IGNORE 1 10 9 14 11 12 13 18 19 20
M  POLY_UPPER 2
M  POLY_LOWER 8
M  POLY_CHG 0
M  POLY_PROPERTIES PROTEIN POLYMER ALPHA_AA ALIPHATIC
M  END

$$$$
DHA_new
     RDKit          3D

 20 19  0  0  0  0  0  0  0  0999 V2000
    2.6405   -1.0733    2.5662 C   0  0  0  0  0  0  0  0  0  0  0  0
    1.6781   -0.2161    1.8595 N   0  0  0  0  0  0  0  0  0  0  0  0
    0.5521   -0.8006    1.2980 C   0  0  0  0  0  0  0  0  0  0  0  0
    0.3949   -2.0521    1.4152 O   0  0  0  0  0  0  0  0  0  0  0  0
   -0.4529   -0.0365    0.5819 C   0  0  0  0  0  0  0  0  0  0  0  0
   -0.3152    1.2553    0.4466 C   0  0  0  0  0  0  0  0  0  0  0  0
   -1.5559   -0.7352    0.0529 N   0  0  0  0  0  0  0  0  0  0  0  0
   -2.6415   -0.2369   -0.6659 C   0  0  0  0  0  0  0  0  0  0  0  0
   -3.7232   -1.1598   -1.1449 C   0  0  0  0  0  0  0  0  0  0  0  0
   -2.7994    0.9599   -0.9584 O   0  0  0  0  0  0  0  0  0  0  0  0
    3.2973   -1.5632    1.8205 H   0  0  0  0  0  0  0  0  0  0  0  0
    3.2644   -0.4895    3.2688 H   0  0  0  0  0  0  0  0  0  0  0  0
    2.1299   -1.8670    3.1432 H   0  0  0  0  0  0  0  0  0  0  0  0
    1.8675    0.7893    1.8023 H   0  0  0  0  0  0  0  0  0  0  0  0
    0.5578    1.7701    0.8717 H   0  0  0  0  0  0  0  0  0  0  0  0
   -1.0328    1.8556   -0.0738 H   0  0  0  0  0  0  0  0  0  0  0  0
   -1.5433   -1.8006    0.2384 H   0  0  0  0  0  0  0  0  0  0  0  0
   -3.9142   -1.9356   -0.3658 H   0  0  0  0  0  0  0  0  0  0  0  0
   -3.3541   -1.6751   -2.0495 H   0  0  0  0  0  0  0  0  0  0  0  0
   -4.6564   -0.6409   -1.3662 H   0  0  0  0  0  0  0  0  0  0  0  0
  1  2  1  0
  1 11  1  0
  1 12  1  0
  1 13  1  0
  2  3  1  0
  2 14  1  0
  3  4  2  0
  3  5  1  0
  5  6  2  3
  5  7  1  0
  6 15  1  0
  6 16  1  0
  7  8  1  0
  7 17  1  0
  8  9  1  0
  8 10  2  0
  9 18  1  0
  9 19  1  0
  9 20  1  0
M  END

> <RosettaParamsInstructions>
M  ROOT 7
M  POLY_N_BB 7
M  POLY_CA_BB 5
M  POLY_C_BB 3
M  POLY_O_BB 4
M  POLY_IGNORE 1 10 9 14 11 12 13 18 19 20
M  POLY_UPPER 2
M  POLY_LOWER 8
M  POLY_CHG 0
M  POLY_PROPERTIES PROTEIN POLYMER ALPHA_AA ALIPHATIC
M  END

$$$$
DHA_new
     RDKit          3D

 20 19  0  0  0  0  0  0  0  0999 V2000
    2.7503   -1.0476    2.5042 C   0  0  0  0  0  0  0  0  0  0  0  0
    1.7067   -0.2538    1.8350 N   0  0  0  0  0  0  0  0  0  0  0  0
    0.5817   -0.8592    1.2721 C   0  0  0  0  0  0  0  0  0  0  0  0
    0.4336   -2.0980    1.3237 O   0  0  0  0  0  0  0  0  0  0  0  0
   -0.4884   -0.0852    0.5902 C   0  0  0  0  0  0  0  0  0  0  0  0
   -0.3734    1.2157    0.5135 C   0  0  0  0  0  0  0  0  0  0  0  0
   -1.5916   -0.7941    0.0507 N   0  0  0  0  0  0  0  0  0  0  0  0
   -2.6630   -0.2176   -0.6104 C   0  0  0  0  0  0  0  0  0  0  0  0
   -3.7582   -1.1183   -1.1245 C   0  0  0  0  0  0  0  0  0  0  0  0
   -2.8347    0.9829   -0.8365 O   0  0  0  0  0  0  0  0  0  0  0  0
    3.6871   -0.8676    1.9694 H   0  0  0  0  0  0  0  0  0  0  0  0
    2.4648   -2.1056    2.4345 H   0  0  0  0  0  0  0  0  0  0  0  0
    2.8011   -0.7915    3.5824 H   0  0  0  0  0  0  0  0  0  0  0  0
    1.8540    0.7728    1.8060 H   0  0  0  0  0  0  0  0  0  0  0  0
    0.4861    1.7555    0.9351 H   0  0  0  0  0  0  0  0  0  0  0  0
   -1.1157    1.8121    0.0340 H   0  0  0  0  0  0  0  0  0  0  0  0
   -1.5668   -1.8733    0.1817 H   0  0  0  0  0  0  0  0  0  0  0  0
   -4.4479   -1.3273   -0.3080 H   0  0  0  0  0  0  0  0  0  0  0  0
   -4.2679   -0.6816   -1.9877 H   0  0  0  0  0  0  0  0  0  0  0  0
   -3.2642   -2.0706   -1.4245 H   0  0  0  0  0  0  0  0  0  0  0  0
  1  2  1  0
  1 11  1  0
  1 12  1  0
  1 13  1  0
  2  3  1  0
  2 14  1  0
  3  4  2  0
  3  5  1  0
  5  6  2  3
  5  7  1  0
  6 15  1  0
  6 16  1  0
  7  8  1  0
  7 17  1  0
  8  9  1  0
  8 10  2  0
  9 18  1  0
  9 19  1  0
  9 20  1  0
M  END

> <RosettaParamsInstructions>
M  ROOT 7
M  POLY_N_BB 7
M  POLY_CA_BB 5
M  POLY_C_BB 3
M  POLY_O_BB 4
M  POLY_IGNORE 1 10 9 14 11 12 13 18 19 20
M  POLY_UPPER 2
M  POLY_LOWER 8
M  POLY_CHG 0
M  POLY_PROPERTIES PROTEIN POLYMER ALPHA_AA ALIPHATIC
M  END

$$$$
DHA_new
     RDKit          3D

 20 19  0  0  0  0  0  0  0  0999 V2000
    2.4199   -1.2308    2.4929 C   0  0  0  0  0  0  0  0  0  0  0  0
    1.5704   -0.2403    1.8314 N   0  0  0  0  0  0  0  0  0  0  0  0
    0.3689   -0.6203    1.1757 C   0  0  0  0  0  0  0  0  0  0  0  0
    0.1364   -1.8689    1.2333 O   0  0  0  0  0  0  0  0  0  0  0  0
   -0.4807    0.3230    0.5215 C   0  0  0  0  0  0  0  0  0  0  0  0
   -0.1301    1.6145    0.5275 C   0  0  0  0  0  0  0  0  0  0  0  0
   -1.6815   -0.0133   -0.1407 N   0  0  0  0  0  0  0  0  0  0  0  0
   -2.2767   -1.2539   -0.3003 C   0  0  0  0  0  0  0  0  0  0  0  0
   -3.5972   -1.3198   -1.0765 C   0  0  0  0  0  0  0  0  0  0  0  0
   -1.9126   -2.3770    0.0930 O   0  0  0  0  0  0  0  0  0  0  0  0
    2.7874   -0.8645    3.4736 H   0  0  0  0  0  0  0  0  0  0  0  0
    1.8410   -2.1579    2.5638 H   0  0  0  0  0  0  0  0  0  0  0  0
    3.2762   -1.4085    1.8166 H   0  0  0  0  0  0  0  0  0  0  0  0
    1.9030    0.7299    1.8771 H   0  0  0  0  0  0  0  0  0  0  0  0
    0.7536    1.9552    1.0002 H   0  0  0  0  0  0  0  0  0  0  0  0
   -0.7457    2.3547    0.0446 H   0  0  0  0  0  0  0  0  0  0  0  0
   -2.2200    0.8127   -0.5912 H   0  0  0  0  0  0  0  0  0  0  0  0
   -3.3888   -1.8560   -2.0214 H   0  0  0  0  0  0  0  0  0  0  0  0
   -3.9427   -0.3133   -1.3079 H   0  0  0  0  0  0  0  0  0  0  0  0
   -4.2874   -1.9178   -0.4722 H   0  0  0  0  0  0  0  0  0  0  0  0
  1  2  1  0
  1 11  1  0
  1 12  1  0
  1 13  1  0
  2  3  1  0
  2 14  1  0
  3  4  2  0
  3  5  1  0
  5  6  2  3
  5  7  1  0
  6 15  1  0
  6 16  1  0
  7  8  1  0
  7 17  1  0
  8  9  1  0
  8 10  2  0
  9 18  1  0
  9 19  1  0
  9 20  1  0
M  END

> <RosettaParamsInstructions>
M  ROOT 7
M  POLY_N_BB 7
M  POLY_CA_BB 5
M  POLY_C_BB 3
M  POLY_O_BB 4
M  POLY_IGNORE 1 10 9 14 11 12 13 18 19 20
M  POLY_UPPER 2
M  POLY_LOWER 8
M  POLY_CHG 0
M  POLY_PROPERTIES PROTEIN POLYMER ALPHA_AA ALIPHATIC
M  END

$$$$
DHA_new
     RDKit          3D

 20 19  0  0  0  0  0  0  0  0999 V2000
    2.6626   -1.0795    2.5725 C   0  0  0  0  0  0  0  0  0  0  0  0
    1.7006   -0.2385    1.8591 N   0  0  0  0  0  0  0  0  0  0  0  0
    0.5583   -0.8169    1.2968 C   0  0  0  0  0  0  0  0  0  0  0  0
    0.3905   -2.0725    1.4258 O   0  0  0  0  0  0  0  0  0  0  0  0
   -0.4576   -0.0481    0.5649 C   0  0  0  0  0  0  0  0  0  0  0  0
   -0.2932    1.2300    0.4298 C   0  0  0  0  0  0  0  0  0  0  0  0
   -1.5741   -0.7471    0.0395 N   0  0  0  0  0  0  0  0  0  0  0  0
   -2.6414   -0.2313   -0.6766 C   0  0  0  0  0  0  0  0  0  0  0  0
   -3.7239   -1.1739   -1.1381 C   0  0  0  0  0  0  0  0  0  0  0  0
   -2.7749    0.9607   -0.9700 O   0  0  0  0  0  0  0  0  0  0  0  0
    3.7043   -0.7194    2.4104 H   0  0  0  0  0  0  0  0  0  0  0  0
    2.5612   -2.1401    2.2666 H   0  0  0  0  0  0  0  0  0  0  0  0
    2.4685   -0.9940    3.6620 H   0  0  0  0  0  0  0  0  0  0  0  0
    1.8799    0.7830    1.7791 H   0  0  0  0  0  0  0  0  0  0  0  0
   -1.0130    1.8283   -0.0985 H   0  0  0  0  0  0  0  0  0  0  0  0
    0.5691    1.7940    0.8312 H   0  0  0  0  0  0  0  0  0  0  0  0
   -1.5905   -1.8180    0.2235 H   0  0  0  0  0  0  0  0  0  0  0  0
   -4.7025   -0.6646   -1.0531 H   0  0  0  0  0  0  0  0  0  0  0  0
   -3.7445   -2.0495   -0.4903 H   0  0  0  0  0  0  0  0  0  0  0  0
   -3.5858   -1.4548   -2.1939 H   0  0  0  0  0  0  0  0  0  0  0  0
  1  2  1  0
  1 11  1  0
  1 12  1  0
  1 13  1  0
  2  3  1  0
  2 14  1  0
  3  4  2  0
  3  5  1  0
  5  6  2  3
  5  7  1  0
  6 15  1  0
  6 16  1  0
  7  8  1  0
  7 17  1  0
  8  9  1  0
  8 10  2  0
  9 18  1  0
  9 19  1  0
  9 20  1  0
M  END

> <RosettaParamsInstructions>
M  ROOT 7
M  POLY_N_BB 7
M  POLY_CA_BB 5
M  POLY_C_BB 3
M  POLY_O_BB 4
M  POLY_IGNORE 1 10 9 14 11 12 13 18 19 20
M  POLY_UPPER 2
M  POLY_LOWER 8
M  POLY_CHG 0
M  POLY_PROPERTIES PROTEIN POLYMER ALPHA_AA ALIPHATIC
M  END

$$$$
DHA_new
     RDKit          3D

 20 19  0  0  0  0  0  0  0  0999 V2000
    2.7039   -1.0322    2.5790 C   0  0  0  0  0  0  0  0  0  0  0  0
    1.6712   -0.2600    1.8632 N   0  0  0  0  0  0  0  0  0  0  0  0
    0.5600   -0.8517    1.3008 C   0  0  0  0  0  0  0  0  0  0  0  0
    0.4192   -2.1023    1.4013 O   0  0  0  0  0  0  0  0  0  0  0  0
   -0.4889   -0.1093    0.5798 C   0  0  0  0  0  0  0  0  0  0  0  0
   -0.3562    1.1852    0.4682 C   0  0  0  0  0  0  0  0  0  0  0  0
   -1.5904   -0.8058    0.0385 N   0  0  0  0  0  0  0  0  0  0  0  0
   -2.6508   -0.2437   -0.6628 C   0  0  0  0  0  0  0  0  0  0  0  0
   -3.7602   -1.1550   -1.1776 C   0  0  0  0  0  0  0  0  0  0  0  0
   -2.7654    0.9688   -0.9069 O   0  0  0  0  0  0  0  0  0  0  0  0
    2.9098   -0.5341    3.5376 H   0  0  0  0  0  0  0  0  0  0  0  0
    2.3406   -2.0467    2.7396 H   0  0  0  0  0  0  0  0  0  0  0  0
    3.5944   -1.0853    1.9343 H   0  0  0  0  0  0  0  0  0  0  0  0
    1.8689    0.7553    1.8303 H   0  0  0  0  0  0  0  0  0  0  0  0
    0.5138    1.6849    0.9031 H   0  0  0  0  0  0  0  0  0  0  0  0
   -1.0284    1.8489   -0.0213 H   0  0  0  0  0  0  0  0  0  0  0  0
   -1.5716   -1.8675    0.2046 H   0  0  0  0  0  0  0  0  0  0  0  0
   -4.6931   -0.5729   -1.0667 H   0  0  0  0  0  0  0  0  0  0  0  0
   -3.5422   -1.3728   -2.2529 H   0  0  0  0  0  0  0  0  0  0  0  0
   -3.7409   -2.0562   -0.5513 H   0  0  0  0  0  0  0  0  0  0  0  0
  1  2  1  0
  1 11  1  0
  1 12  1  0
  1 13  1  0
  2  3  1  0
  2 14  1  0
  3  4  2  0
  3  5  1  0
  5  6  2  3
  5  7  1  0
  6 15  1  0
  6 16  1  0
  7  8  1  0
  7 17  1  0
  8  9  1  0
  8 10  2  0
  9 18  1  0
  9 19  1  0
  9 20  1  0
M  END

> <RosettaParamsInstructions>
M  ROOT 7
M  POLY_N_BB 7
M  POLY_CA_BB 5
M  POLY_C_BB 3
M  POLY_O_BB 4
M  POLY_IGNORE 1 10 9 14 11 12 13 18 19 20
M  POLY_UPPER 2
M  POLY_LOWER 8
M  POLY_CHG 0
M  POLY_PROPERTIES PROTEIN POLYMER ALPHA_AA ALIPHATIC
M  END

$$$$
DHA_new
     RDKit          3D

 20 19  0  0  0  0  0  0  0  0999 V2000
    2.6513   -1.1038    2.5650 C   0  0  0  0  0  0  0  0  0  0  0  0
    1.6889   -0.2326    1.8607 N   0  0  0  0  0  0  0  0  0  0  0  0
    0.5607   -0.8098    1.2907 C   0  0  0  0  0  0  0  0  0  0  0  0
    0.4080   -2.0641    1.4016 O   0  0  0  0  0  0  0  0  0  0  0  0
   -0.4749   -0.0505    0.5613 C   0  0  0  0  0  0  0  0  0  0  0  0
   -0.3446    1.2454    0.4306 C   0  0  0  0  0  0  0  0  0  0  0  0
   -1.5541   -0.7719    0.0431 N   0  0  0  0  0  0  0  0  0  0  0  0
   -2.6205   -0.2284   -0.6697 C   0  0  0  0  0  0  0  0  0  0  0  0
   -3.7059   -1.1806   -1.1547 C   0  0  0  0  0  0  0  0  0  0  0  0
   -2.7695    0.9714   -0.9491 O   0  0  0  0  0  0  0  0  0  0  0  0
    2.0711   -1.8445    3.1167 H   0  0  0  0  0  0  0  0  0  0  0  0
    3.3271   -1.5019    1.8016 H   0  0  0  0  0  0  0  0  0  0  0  0
    3.2111   -0.4931    3.3237 H   0  0  0  0  0  0  0  0  0  0  0  0
    1.8966    0.7818    1.8204 H   0  0  0  0  0  0  0  0  0  0  0  0
   -1.0482    1.8508   -0.0793 H   0  0  0  0  0  0  0  0  0  0  0  0
    0.5390    1.7515    0.8684 H   0  0  0  0  0  0  0  0  0  0  0  0
   -1.5817   -1.8450    0.1985 H   0  0  0  0  0  0  0  0  0  0  0  0
   -3.4973   -1.3502   -2.2125 H   0  0  0  0  0  0  0  0  0  0  0  0
   -4.6755   -0.6835   -0.9486 H   0  0  0  0  0  0  0  0  0  0  0  0
   -3.6881   -2.0933   -0.5275 H   0  0  0  0  0  0  0  0  0  0  0  0
  1  2  1  0
  1 11  1  0
  1 12  1  0
  1 13  1  0
  2  3  1  0
  2 14  1  0
  3  4  2  0
  3  5  1  0
  5  6  2  3
  5  7  1  0
  6 15  1  0
  6 16  1  0
  7  8  1  0
  7 17  1  0
  8  9  1  0
  8 10  2  0
  9 18  1  0
  9 19  1  0
  9 20  1  0
M  END

> <RosettaParamsInstructions>
M  ROOT 7
M  POLY_N_BB 7
M  POLY_CA_BB 5
M  POLY_C_BB 3
M  POLY_O_BB 4
M  POLY_IGNORE 1 10 9 14 11 12 13 18 19 20
M  POLY_UPPER 2
M  POLY_LOWER 8
M  POLY_CHG 0
M  POLY_PROPERTIES PROTEIN POLYMER ALPHA_AA ALIPHATIC
M  END

$$$$
DHA_new
     RDKit          3D

 20 19  0  0  0  0  0  0  0  0999 V2000
    2.6255   -1.0235    2.6712 C   0  0  0  0  0  0  0  0  0  0  0  0
    1.6611   -0.2590    1.8725 N   0  0  0  0  0  0  0  0  0  0  0  0
    0.5111   -0.8564    1.3418 C   0  0  0  0  0  0  0  0  0  0  0  0
    0.2907   -2.1084    1.5580 O   0  0  0  0  0  0  0  0  0  0  0  0
   -0.4453   -0.0985    0.5498 C   0  0  0  0  0  0  0  0  0  0  0  0
   -0.2408    1.1686    0.3196 C   0  0  0  0  0  0  0  0  0  0  0  0
   -1.5674   -0.7740    0.0579 N   0  0  0  0  0  0  0  0  0  0  0  0
   -2.5903   -0.2299   -0.7147 C   0  0  0  0  0  0  0  0  0  0  0  0
   -3.7151   -1.1507   -1.1397 C   0  0  0  0  0  0  0  0  0  0  0  0
   -2.6931    0.9370   -1.1032 O   0  0  0  0  0  0  0  0  0  0  0  0
    2.4432   -0.7896    3.7295 H   0  0  0  0  0  0  0  0  0  0  0  0
    2.4683   -2.1063    2.4548 H   0  0  0  0  0  0  0  0  0  0  0  0
    3.6357   -0.7137    2.3697 H   0  0  0  0  0  0  0  0  0  0  0  0
    1.8809    0.7226    1.7314 H   0  0  0  0  0  0  0  0  0  0  0  0
    0.6375    1.7035    0.7030 H   0  0  0  0  0  0  0  0  0  0  0  0
   -0.9067    1.8166   -0.2654 H   0  0  0  0  0  0  0  0  0  0  0  0
   -1.6403   -1.8033    0.3013 H   0  0  0  0  0  0  0  0  0  0  0  0
   -3.5317   -1.4279   -2.1882 H   0  0  0  0  0  0  0  0  0  0  0  0
   -3.7422   -2.0394   -0.4866 H   0  0  0  0  0  0  0  0  0  0  0  0
   -4.6875   -0.6198   -1.0218 H   0  0  0  0  0  0  0  0  0  0  0  0
  1  2  1  0
  1 11  1  0
  1 12  1  0
  1 13  1  0
  2  3  1  0
  2 14  1  0
  3  4  2  0
  3  5  1  0
  5  6  2  3
  5  7  1  0
  6 15  1  0
  6 16  1  0
  7  8  1  0
  7 17  1  0
  8  9  1  0
  8 10  2  0
  9 18  1  0
  9 19  1  0
  9 20  1  0
M  END

> <RosettaParamsInstructions>
M  ROOT 7
M  POLY_N_BB 7
M  POLY_CA_BB 5
M  POLY_C_BB 3
M  POLY_O_BB 4
M  POLY_IGNORE 1 10 9 14 11 12 13 18 19 20
M  POLY_UPPER 2
M  POLY_LOWER 8
M  POLY_CHG 0
M  POLY_PROPERTIES PROTEIN POLYMER ALPHA_AA ALIPHATIC
M  END

$$$$
DHA_new
     RDKit          3D

 20 19  0  0  0  0  0  0  0  0999 V2000
    2.6769   -1.0289    2.5736 C   0  0  0  0  0  0  0  0  0  0  0  0
    1.6447   -0.2148    1.8975 N   0  0  0  0  0  0  0  0  0  0  0  0
    0.5564   -0.8644    1.2847 C   0  0  0  0  0  0  0  0  0  0  0  0
    0.5201   -2.1269    1.3465 O   0  0  0  0  0  0  0  0  0  0  0  0
   -0.4851   -0.1007    0.6064 C   0  0  0  0  0  0  0  0  0  0  0  0
   -0.4130    1.1881    0.5644 C   0  0  0  0  0  0  0  0  0  0  0  0
   -1.5281   -0.8327    0.0263 N   0  0  0  0  0  0  0  0  0  0  0  0
   -2.6056   -0.2677   -0.6606 C   0  0  0  0  0  0  0  0  0  0  0  0
   -3.6886   -1.1711   -1.2534 C   0  0  0  0  0  0  0  0  0  0  0  0
   -2.8212    0.9360   -0.8703 O   0  0  0  0  0  0  0  0  0  0  0  0
    2.9958   -0.4904    3.4884 H   0  0  0  0  0  0  0  0  0  0  0  0
    3.5294   -1.2000    1.8887 H   0  0  0  0  0  0  0  0  0  0  0  0
    2.2303   -2.0085    2.8061 H   0  0  0  0  0  0  0  0  0  0  0  0
    1.8136    0.8030    1.9316 H   0  0  0  0  0  0  0  0  0  0  0  0
    0.4149    1.7618    1.0252 H   0  0  0  0  0  0  0  0  0  0  0  0
   -1.1286    1.8314    0.0904 H   0  0  0  0  0  0  0  0  0  0  0  0
   -1.4970   -1.8997    0.1158 H   0  0  0  0  0  0  0  0  0  0  0  0
   -4.6342   -0.7774   -0.8268 H   0  0  0  0  0  0  0  0  0  0  0  0
   -3.5194   -2.2100   -0.9592 H   0  0  0  0  0  0  0  0  0  0  0  0
   -3.6678   -0.9795   -2.3344 H   0  0  0  0  0  0  0  0  0  0  0  0
  1  2  1  0
  1 11  1  0
  1 12  1  0
  1 13  1  0
  2  3  1  0
  2 14  1  0
  3  4  2  0
  3  5  1  0
  5  6  2  3
  5  7  1  0
  6 15  1  0
  6 16  1  0
  7  8  1  0
  7 17  1  0
  8  9  1  0
  8 10  2  0
  9 18  1  0
  9 19  1  0
  9 20  1  0
M  END

> <RosettaParamsInstructions>
M  ROOT 7
M  POLY_N_BB 7
M  POLY_CA_BB 5
M  POLY_C_BB 3
M  POLY_O_BB 4
M  POLY_IGNORE 1 10 9 14 11 12 13 18 19 20
M  POLY_UPPER 2
M  POLY_LOWER 8
M  POLY_CHG 0
M  POLY_PROPERTIES PROTEIN POLYMER ALPHA_AA ALIPHATIC
M  END

$$$$
DHA_new
     RDKit          3D

 20 19  0  0  0  0  0  0  0  0999 V2000
    2.6345   -1.0597    2.5981 C   0  0  0  0  0  0  0  0  0  0  0  0
    1.6860   -0.2238    1.8769 N   0  0  0  0  0  0  0  0  0  0  0  0
    0.5491   -0.7922    1.3048 C   0  0  0  0  0  0  0  0  0  0  0  0
    0.4044   -2.0549    1.4537 O   0  0  0  0  0  0  0  0  0  0  0  0
   -0.4546   -0.0280    0.5640 C   0  0  0  0  0  0  0  0  0  0  0  0
   -0.3002    1.2552    0.4172 C   0  0  0  0  0  0  0  0  0  0  0  0
   -1.5453   -0.7609    0.0500 N   0  0  0  0  0  0  0  0  0  0  0  0
   -2.6303   -0.2641   -0.6895 C   0  0  0  0  0  0  0  0  0  0  0  0
   -3.7359   -1.1608   -1.1819 C   0  0  0  0  0  0  0  0  0  0  0  0
   -2.7285    0.9380   -0.9719 O   0  0  0  0  0  0  0  0  0  0  0  0
    3.4239   -0.4632    3.0647 H   0  0  0  0  0  0  0  0  0  0  0  0
    2.1550   -1.6723    3.3726 H   0  0  0  0  0  0  0  0  0  0  0  0
    3.1180   -1.7610    1.8869 H   0  0  0  0  0  0  0  0  0  0  0  0
    1.8828    0.7833    1.8068 H   0  0  0  0  0  0  0  0  0  0  0  0
    0.5690    1.7704    0.8396 H   0  0  0  0  0  0  0  0  0  0  0  0
   -0.9840    1.8950   -0.1097 H   0  0  0  0  0  0  0  0  0  0  0  0
   -1.5702   -1.8178    0.2320 H   0  0  0  0  0  0  0  0  0  0  0  0
   -4.6518   -0.5781   -1.3973 H   0  0  0  0  0  0  0  0  0  0  0  0
   -3.3970   -1.7835   -2.0168 H   0  0  0  0  0  0  0  0  0  0  0  0
   -4.0313   -1.8738   -0.3594 H   0  0  0  0  0  0  0  0  0  0  0  0
  1  2  1  0
  1 11  1  0
  1 12  1  0
  1 13  1  0
  2  3  1  0
  2 14  1  0
  3  4  2  0
  3  5  1  0
  5  6  2  3
  5  7  1  0
  6 15  1  0
  6 16  1  0
  7  8  1  0
  7 17  1  0
  8  9  1  0
  8 10  2  0
  9 18  1  0
  9 19  1  0
  9 20  1  0
M  END

> <RosettaParamsInstructions>
M  ROOT 7
M  POLY_N_BB 7
M  POLY_CA_BB 5
M  POLY_C_BB 3
M  POLY_O_BB 4
M  POLY_IGNORE 1 10 9 14 11 12 13 18 19 20
M  POLY_UPPER 2
M  POLY_LOWER 8
M  POLY_CHG 0
M  POLY_PROPERTIES PROTEIN POLYMER ALPHA_AA ALIPHATIC
M  END

$$$$
DHA_new
     RDKit          3D

 20 19  0  0  0  0  0  0  0  0999 V2000
    2.3086   -1.6019    2.3984 C   0  0  0  0  0  0  0  0  0  0  0  0
    1.0904   -1.2145    1.6427 N   0  0  0  0  0  0  0  0  0  0  0  0
    0.8211    0.1160    1.3738 C   0  0  0  0  0  0  0  0  0  0  0  0
    1.5979    1.0048    1.7626 O   0  0  0  0  0  0  0  0  0  0  0  0
   -0.3920    0.5116    0.6204 C   0  0  0  0  0  0  0  0  0  0  0  0
   -0.5879    1.7978    0.3988 C   0  0  0  0  0  0  0  0  0  0  0  0
   -1.2937   -0.4649    0.1645 N   0  0  0  0  0  0  0  0  0  0  0  0
   -2.4647   -0.2268   -0.5509 C   0  0  0  0  0  0  0  0  0  0  0  0
   -3.3019   -1.4298   -0.9497 C   0  0  0  0  0  0  0  0  0  0  0  0
   -2.9434    0.8583   -0.9241 O   0  0  0  0  0  0  0  0  0  0  0  0
    2.0444   -1.8160    3.4390 H   0  0  0  0  0  0  0  0  0  0  0  0
    3.0399   -0.7890    2.3213 H   0  0  0  0  0  0  0  0  0  0  0  0
    2.7278   -2.5173    1.9378 H   0  0  0  0  0  0  0  0  0  0  0  0
    0.5099   -2.0077    1.3626 H   0  0  0  0  0  0  0  0  0  0  0  0
   -1.4252    2.1580   -0.1283 H   0  0  0  0  0  0  0  0  0  0  0  0
    0.1402    2.4970    0.7743 H   0  0  0  0  0  0  0  0  0  0  0  0
   -1.0492   -1.4654    0.3917 H   0  0  0  0  0  0  0  0  0  0  0  0
   -3.5180   -1.2672   -2.0429 H   0  0  0  0  0  0  0  0  0  0  0  0
   -4.2398   -1.4665   -0.3880 H   0  0  0  0  0  0  0  0  0  0  0  0
   -2.6709   -2.3286   -0.8630 H   0  0  0  0  0  0  0  0  0  0  0  0
  1  2  1  0
  1 11  1  0
  1 12  1  0
  1 13  1  0
  2  3  1  0
  2 14  1  0
  3  4  2  0
  3  5  1  0
  5  6  2  3
  5  7  1  0
  6 15  1  0
  6 16  1  0
  7  8  1  0
  7 17  1  0
  8  9  1  0
  8 10  2  0
  9 18  1  0
  9 19  1  0
  9 20  1  0
M  END

> <RosettaParamsInstructions>
M  ROOT 7
M  POLY_N_BB 7
M  POLY_CA_BB 5
M  POLY_C_BB 3
M  POLY_O_BB 4
M  POLY_IGNORE 1 10 9 14 11 12 13 18 19 20
M  POLY_UPPER 2
M  POLY_LOWER 8
M  POLY_CHG 0
M  POLY_PROPERTIES PROTEIN POLYMER ALPHA_AA ALIPHATIC
M  END

$$$$
DHA_new
     RDKit          3D

 20 19  0  0  0  0  0  0  0  0999 V2000
    2.7140   -1.0988    2.4863 C   0  0  0  0  0  0  0  0  0  0  0  0
    1.6963   -0.2359    1.8465 N   0  0  0  0  0  0  0  0  0  0  0  0
    0.5700   -0.8060    1.2526 C   0  0  0  0  0  0  0  0  0  0  0  0
    0.4461   -2.0546    1.2761 O   0  0  0  0  0  0  0  0  0  0  0  0
   -0.4821   -0.0223    0.5993 C   0  0  0  0  0  0  0  0  0  0  0  0
   -0.3914    1.2725    0.5537 C   0  0  0  0  0  0  0  0  0  0  0  0
   -1.5648   -0.7562    0.0424 N   0  0  0  0  0  0  0  0  0  0  0  0
   -2.6588   -0.2389   -0.6146 C   0  0  0  0  0  0  0  0  0  0  0  0
   -3.7142   -1.1574   -1.1423 C   0  0  0  0  0  0  0  0  0  0  0  0
   -2.8443    0.9659   -0.8097 O   0  0  0  0  0  0  0  0  0  0  0  0
    2.1933   -1.9903    2.9145 H   0  0  0  0  0  0  0  0  0  0  0  0
    3.1500   -0.5079    3.2961 H   0  0  0  0  0  0  0  0  0  0  0  0
    3.4600   -1.4439    1.7549 H   0  0  0  0  0  0  0  0  0  0  0  0
    1.8404    0.7958    1.8507 H   0  0  0  0  0  0  0  0  0  0  0  0
   -1.1176    1.8981    0.0964 H   0  0  0  0  0  0  0  0  0  0  0  0
    0.4554    1.7806    0.9943 H   0  0  0  0  0  0  0  0  0  0  0  0
   -1.5387   -1.8254    0.1372 H   0  0  0  0  0  0  0  0  0  0  0  0
   -3.8793   -1.9572   -0.3822 H   0  0  0  0  0  0  0  0  0  0  0  0
   -4.6605   -0.6428   -1.3494 H   0  0  0  0  0  0  0  0  0  0  0  0
   -3.2803   -1.6273   -2.0617 H   0  0  0  0  0  0  0  0  0  0  0  0
  1  2  1  0
  1 11  1  0
  1 12  1  0
  1 13  1  0
  2  3  1  0
  2 14  1  0
  3  4  2  0
  3  5  1  0
  5  6  2  3
  5  7  1  0
  6 15  1  0
  6 16  1  0
  7  8  1  0
  7 17  1  0
  8  9  1  0
  8 10  2  0
  9 18  1  0
  9 19  1  0
  9 20  1  0
M  END

> <RosettaParamsInstructions>
M  ROOT 7
M  POLY_N_BB 7
M  POLY_CA_BB 5
M  POLY_C_BB 3
M  POLY_O_BB 4
M  POLY_IGNORE 1 10 9 14 11 12 13 18 19 20
M  POLY_UPPER 2
M  POLY_LOWER 8
M  POLY_CHG 0
M  POLY_PROPERTIES PROTEIN POLYMER ALPHA_AA ALIPHATIC
M  END

$$$$
DHA_new
     RDKit          3D

 20 19  0  0  0  0  0  0  0  0999 V2000
    2.7022   -1.0380    2.5384 C   0  0  0  0  0  0  0  0  0  0  0  0
    1.6796   -0.2055    1.8603 N   0  0  0  0  0  0  0  0  0  0  0  0
    0.5742   -0.8468    1.2894 C   0  0  0  0  0  0  0  0  0  0  0  0
    0.4591   -2.1128    1.3561 O   0  0  0  0  0  0  0  0  0  0  0  0
   -0.4842   -0.0730    0.5969 C   0  0  0  0  0  0  0  0  0  0  0  0
   -0.3710    1.2342    0.5248 C   0  0  0  0  0  0  0  0  0  0  0  0
   -1.5679   -0.8141    0.0490 N   0  0  0  0  0  0  0  0  0  0  0  0
   -2.6556   -0.2753   -0.6358 C   0  0  0  0  0  0  0  0  0  0  0  0
   -3.7574   -1.1687   -1.1781 C   0  0  0  0  0  0  0  0  0  0  0  0
   -2.7965    0.9349   -0.8444 O   0  0  0  0  0  0  0  0  0  0  0  0
    2.2567   -2.0206    2.8240 H   0  0  0  0  0  0  0  0  0  0  0  0
    3.4644   -1.2538    1.7610 H   0  0  0  0  0  0  0  0  0  0  0  0
    3.1010   -0.5185    3.4118 H   0  0  0  0  0  0  0  0  0  0  0  0
    1.9046    0.8010    1.8844 H   0  0  0  0  0  0  0  0  0  0  0  0
   -1.0544    1.9188    0.0582 H   0  0  0  0  0  0  0  0  0  0  0  0
    0.4915    1.7068    0.9732 H   0  0  0  0  0  0  0  0  0  0  0  0
   -1.5506   -1.8774    0.1708 H   0  0  0  0  0  0  0  0  0  0  0  0
   -3.6369   -2.1664   -0.7419 H   0  0  0  0  0  0  0  0  0  0  0  0
   -4.7224   -0.6845   -0.8913 H   0  0  0  0  0  0  0  0  0  0  0  0
   -3.6430   -1.1925   -2.2663 H   0  0  0  0  0  0  0  0  0  0  0  0
  1  2  1  0
  1 11  1  0
  1 12  1  0
  1 13  1  0
  2  3  1  0
  2 14  1  0
  3  4  2  0
  3  5  1  0
  5  6  2  3
  5  7  1  0
  6 15  1  0
  6 16  1  0
  7  8  1  0
  7 17  1  0
  8  9  1  0
  8 10  2  0
  9 18  1  0
  9 19  1  0
  9 20  1  0
M  END

> <RosettaParamsInstructions>
M  ROOT 7
M  POLY_N_BB 7
M  POLY_CA_BB 5
M  POLY_C_BB 3
M  POLY_O_BB 4
M  POLY_IGNORE 1 10 9 14 11 12 13 18 19 20
M  POLY_UPPER 2
M  POLY_LOWER 8
M  POLY_CHG 0
M  POLY_PROPERTIES PROTEIN POLYMER ALPHA_AA ALIPHATIC
M  END

$$$$
DHA_new
     RDKit          3D

 20 19  0  0  0  0  0  0  0  0999 V2000
    2.6494   -1.0677    2.5733 C   0  0  0  0  0  0  0  0  0  0  0  0
    1.6771   -0.2034    1.8864 N   0  0  0  0  0  0  0  0  0  0  0  0
    0.5714   -0.8130    1.3062 C   0  0  0  0  0  0  0  0  0  0  0  0
    0.4277   -2.0739    1.3800 O   0  0  0  0  0  0  0  0  0  0  0  0
   -0.4750   -0.0371    0.5863 C   0  0  0  0  0  0  0  0  0  0  0  0
   -0.3653    1.2622    0.4875 C   0  0  0  0  0  0  0  0  0  0  0  0
   -1.5526   -0.7529    0.0363 N   0  0  0  0  0  0  0  0  0  0  0  0
   -2.6302   -0.2433   -0.6683 C   0  0  0  0  0  0  0  0  0  0  0  0
   -3.7024   -1.2083   -1.1837 C   0  0  0  0  0  0  0  0  0  0  0  0
   -2.7780    0.9704   -0.9094 O   0  0  0  0  0  0  0  0  0  0  0  0
    3.5741   -0.5118    2.7912 H   0  0  0  0  0  0  0  0  0  0  0  0
    2.9171   -1.9132    1.8998 H   0  0  0  0  0  0  0  0  0  0  0  0
    2.1503   -1.4732    3.4546 H   0  0  0  0  0  0  0  0  0  0  0  0
    1.8622    0.7992    1.8699 H   0  0  0  0  0  0  0  0  0  0  0  0
    0.5099    1.7524    0.9457 H   0  0  0  0  0  0  0  0  0  0  0  0
   -1.0762    1.8760   -0.0126 H   0  0  0  0  0  0  0  0  0  0  0  0
   -1.5347   -1.8221    0.1820 H   0  0  0  0  0  0  0  0  0  0  0  0
   -4.0467   -0.8040   -2.1413 H   0  0  0  0  0  0  0  0  0  0  0  0
   -4.5415   -1.1717   -0.4718 H   0  0  0  0  0  0  0  0  0  0  0  0
   -3.2430   -2.2169   -1.2711 H   0  0  0  0  0  0  0  0  0  0  0  0
  1  2  1  0
  1 11  1  0
  1 12  1  0
  1 13  1  0
  2  3  1  0
  2 14  1  0
  3  4  2  0
  3  5  1  0
  5  6  2  3
  5  7  1  0
  6 15  1  0
  6 16  1  0
  7  8  1  0
  7 17  1  0
  8  9  1  0
  8 10  2  0
  9 18  1  0
  9 19  1  0
  9 20  1  0
M  END

> <RosettaParamsInstructions>
M  ROOT 7
M  POLY_N_BB 7
M  POLY_CA_BB 5
M  POLY_C_BB 3
M  POLY_O_BB 4
M  POLY_IGNORE 1 10 9 14 11 12 13 18 19 20
M  POLY_UPPER 2
M  POLY_LOWER 8
M  POLY_CHG 0
M  POLY_PROPERTIES PROTEIN POLYMER ALPHA_AA ALIPHATIC
M  END

$$$$
DHA_new
     RDKit          3D

 20 19  0  0  0  0  0  0  0  0999 V2000
    2.7442   -1.0382    2.5168 C   0  0  0  0  0  0  0  0  0  0  0  0
    1.6848   -0.2704    1.8540 N   0  0  0  0  0  0  0  0  0  0  0  0
    0.5765   -0.8723    1.2685 C   0  0  0  0  0  0  0  0  0  0  0  0
    0.4714   -2.1183    1.3044 O   0  0  0  0  0  0  0  0  0  0  0  0
   -0.4890   -0.1085    0.6025 C   0  0  0  0  0  0  0  0  0  0  0  0
   -0.4126    1.2065    0.5450 C   0  0  0  0  0  0  0  0  0  0  0  0
   -1.5704   -0.8259    0.0413 N   0  0  0  0  0  0  0  0  0  0  0  0
   -2.6430   -0.2364   -0.6153 C   0  0  0  0  0  0  0  0  0  0  0  0
   -3.7406   -1.1249   -1.1727 C   0  0  0  0  0  0  0  0  0  0  0  0
   -2.8256    0.9735   -0.8124 O   0  0  0  0  0  0  0  0  0  0  0  0
    3.7475   -0.6548    2.2637 H   0  0  0  0  0  0  0  0  0  0  0  0
    2.5779   -0.9016    3.6017 H   0  0  0  0  0  0  0  0  0  0  0  0
    2.6958   -2.1063    2.2096 H   0  0  0  0  0  0  0  0  0  0  0  0
    1.8295    0.7454    1.8583 H   0  0  0  0  0  0  0  0  0  0  0  0
    0.4488    1.7243    0.9961 H   0  0  0  0  0  0  0  0  0  0  0  0
   -1.1104    1.8769    0.0957 H   0  0  0  0  0  0  0  0  0  0  0  0
   -1.5251   -1.8957    0.1494 H   0  0  0  0  0  0  0  0  0  0  0  0
   -3.8126   -2.0483   -0.6010 H   0  0  0  0  0  0  0  0  0  0  0  0
   -4.7176   -0.6060   -1.1352 H   0  0  0  0  0  0  0  0  0  0  0  0
   -3.5360   -1.3714   -2.2298 H   0  0  0  0  0  0  0  0  0  0  0  0
  1  2  1  0
  1 11  1  0
  1 12  1  0
  1 13  1  0
  2  3  1  0
  2 14  1  0
  3  4  2  0
  3  5  1  0
  5  6  2  3
  5  7  1  0
  6 15  1  0
  6 16  1  0
  7  8  1  0
  7 17  1  0
  8  9  1  0
  8 10  2  0
  9 18  1  0
  9 19  1  0
  9 20  1  0
M  END

> <RosettaParamsInstructions>
M  ROOT 7
M  POLY_N_BB 7
M  POLY_CA_BB 5
M  POLY_C_BB 3
M  POLY_O_BB 4
M  POLY_IGNORE 1 10 9 14 11 12 13 18 19 20
M  POLY_UPPER 2
M  POLY_LOWER 8
M  POLY_CHG 0
M  POLY_PROPERTIES PROTEIN POLYMER ALPHA_AA ALIPHATIC
M  END

$$$$
DHA_new
     RDKit          3D

 20 19  0  0  0  0  0  0  0  0999 V2000
    2.6172   -1.0696    2.6619 C   0  0  0  0  0  0  0  0  0  0  0  0
    1.6986   -0.2397    1.8736 N   0  0  0  0  0  0  0  0  0  0  0  0
    0.5346   -0.7918    1.3297 C   0  0  0  0  0  0  0  0  0  0  0  0
    0.3155   -2.0356    1.5509 O   0  0  0  0  0  0  0  0  0  0  0  0
   -0.4594   -0.0658    0.5254 C   0  0  0  0  0  0  0  0  0  0  0  0
   -0.2363    1.2143    0.2963 C   0  0  0  0  0  0  0  0  0  0  0  0
   -1.5774   -0.7676    0.0518 N   0  0  0  0  0  0  0  0  0  0  0  0
   -2.6028   -0.2500   -0.7123 C   0  0  0  0  0  0  0  0  0  0  0  0
   -3.7167   -1.2052   -1.1115 C   0  0  0  0  0  0  0  0  0  0  0  0
   -2.6953    0.9500   -1.1086 O   0  0  0  0  0  0  0  0  0  0  0  0
    3.6238   -0.6443    2.5653 H   0  0  0  0  0  0  0  0  0  0  0  0
    2.5429   -2.1090    2.2856 H   0  0  0  0  0  0  0  0  0  0  0  0
    2.2533   -1.0006    3.7077 H   0  0  0  0  0  0  0  0  0  0  0  0
    1.9359    0.7567    1.7336 H   0  0  0  0  0  0  0  0  0  0  0  0
   -0.9065    1.8206   -0.2791 H   0  0  0  0  0  0  0  0  0  0  0  0
    0.6627    1.7137    0.6956 H   0  0  0  0  0  0  0  0  0  0  0  0
   -1.6242   -1.7942    0.3151 H   0  0  0  0  0  0  0  0  0  0  0  0
   -4.0023   -0.9037   -2.1417 H   0  0  0  0  0  0  0  0  0  0  0  0
   -3.3834   -2.2486   -1.0357 H   0  0  0  0  0  0  0  0  0  0  0  0
   -4.5868   -0.9816   -0.4629 H   0  0  0  0  0  0  0  0  0  0  0  0
  1  2  1  0
  1 11  1  0
  1 12  1  0
  1 13  1  0
  2  3  1  0
  2 14  1  0
  3  4  2  0
  3  5  1  0
  5  6  2  3
  5  7  1  0
  6 15  1  0
  6 16  1  0
  7  8  1  0
  7 17  1  0
  8  9  1  0
  8 10  2  0
  9 18  1  0
  9 19  1  0
  9 20  1  0
M  END

> <RosettaParamsInstructions>
M  ROOT 7
M  POLY_N_BB 7
M  POLY_CA_BB 5
M  POLY_C_BB 3
M  POLY_O_BB 4
M  POLY_IGNORE 1 10 9 14 11 12 13 18 19 20
M  POLY_UPPER 2
M  POLY_LOWER 8
M  POLY_CHG 0
M  POLY_PROPERTIES PROTEIN POLYMER ALPHA_AA ALIPHATIC
M  END

$$$$
DHA_new
     RDKit          3D

 20 19  0  0  0  0  0  0  0  0999 V2000
    2.6397   -1.0424    2.6505 C   0  0  0  0  0  0  0  0  0  0  0  0
    1.6543   -0.2424    1.9145 N   0  0  0  0  0  0  0  0  0  0  0  0
    0.5393   -0.8235    1.3212 C   0  0  0  0  0  0  0  0  0  0  0  0
    0.3788   -2.0790    1.4246 O   0  0  0  0  0  0  0  0  0  0  0  0
   -0.4561   -0.0697    0.5865 C   0  0  0  0  0  0  0  0  0  0  0  0
   -0.3028    1.2323    0.4710 C   0  0  0  0  0  0  0  0  0  0  0  0
   -1.5477   -0.7589    0.0250 N   0  0  0  0  0  0  0  0  0  0  0  0
   -2.6205   -0.2480   -0.7183 C   0  0  0  0  0  0  0  0  0  0  0  0
   -3.7009   -1.1665   -1.2361 C   0  0  0  0  0  0  0  0  0  0  0  0
   -2.7622    0.9572   -0.9999 O   0  0  0  0  0  0  0  0  0  0  0  0
    2.4058   -1.0296    3.7370 H   0  0  0  0  0  0  0  0  0  0  0  0
    3.6467   -0.6418    2.4224 H   0  0  0  0  0  0  0  0  0  0  0  0
    2.5550   -2.1074    2.3084 H   0  0  0  0  0  0  0  0  0  0  0  0
    1.8547    0.7710    1.8747 H   0  0  0  0  0  0  0  0  0  0  0  0
   -0.9909    1.8989   -0.0603 H   0  0  0  0  0  0  0  0  0  0  0  0
    0.5360    1.7816    0.8993 H   0  0  0  0  0  0  0  0  0  0  0  0
   -1.5624   -1.8247    0.1877 H   0  0  0  0  0  0  0  0  0  0  0  0
   -4.0695   -0.8083   -2.2071 H   0  0  0  0  0  0  0  0  0  0  0  0
   -3.3061   -2.1919   -1.3920 H   0  0  0  0  0  0  0  0  0  0  0  0
   -4.4977   -1.2592   -0.4683 H   0  0  0  0  0  0  0  0  0  0  0  0
  1  2  1  0
  1 11  1  0
  1 12  1  0
  1 13  1  0
  2  3  1  0
  2 14  1  0
  3  4  2  0
  3  5  1  0
  5  6  2  3
  5  7  1  0
  6 15  1  0
  6 16  1  0
  7  8  1  0
  7 17  1  0
  8  9  1  0
  8 10  2  0
  9 18  1  0
  9 19  1  0
  9 20  1  0
M  END

> <RosettaParamsInstructions>
M  ROOT 7
M  POLY_N_BB 7
M  POLY_CA_BB 5
M  POLY_C_BB 3
M  POLY_O_BB 4
M  POLY_IGNORE 1 10 9 14 11 12 13 18 19 20
M  POLY_UPPER 2
M  POLY_LOWER 8
M  POLY_CHG 0
M  POLY_PROPERTIES PROTEIN POLYMER ALPHA_AA ALIPHATIC
M  END

$$$$
DHA_new
     RDKit          3D

 20 19  0  0  0  0  0  0  0  0999 V2000
    2.6619   -1.0701    2.5833 C   0  0  0  0  0  0  0  0  0  0  0  0
    1.6785   -0.2269    1.8625 N   0  0  0  0  0  0  0  0  0  0  0  0
    0.5518   -0.8418    1.3052 C   0  0  0  0  0  0  0  0  0  0  0  0
    0.3773   -2.1035    1.4170 O   0  0  0  0  0  0  0  0  0  0  0  0
   -0.4567   -0.0607    0.5803 C   0  0  0  0  0  0  0  0  0  0  0  0
   -0.3033    1.2234    0.4525 C   0  0  0  0  0  0  0  0  0  0  0  0
   -1.5877   -0.7474    0.0327 N   0  0  0  0  0  0  0  0  0  0  0  0
   -2.6551   -0.2134   -0.6849 C   0  0  0  0  0  0  0  0  0  0  0  0
   -3.7166   -1.2001   -1.1409 C   0  0  0  0  0  0  0  0  0  0  0  0
   -2.7978    0.9883   -0.9727 O   0  0  0  0  0  0  0  0  0  0  0  0
    2.9489   -0.4901    3.4894 H   0  0  0  0  0  0  0  0  0  0  0  0
    2.1937   -2.0237    2.8387 H   0  0  0  0  0  0  0  0  0  0  0  0
    3.4799   -1.2424    1.8844 H   0  0  0  0  0  0  0  0  0  0  0  0
    1.8962    0.7809    1.8193 H   0  0  0  0  0  0  0  0  0  0  0  0
   -1.0129    1.8256   -0.0665 H   0  0  0  0  0  0  0  0  0  0  0  0
    0.5475    1.7253    0.8669 H   0  0  0  0  0  0  0  0  0  0  0  0
   -1.5652   -1.8079    0.2260 H   0  0  0  0  0  0  0  0  0  0  0  0
   -4.6496   -0.6366   -1.3025 H   0  0  0  0  0  0  0  0  0  0  0  0
   -3.8339   -1.9452   -0.3492 H   0  0  0  0  0  0  0  0  0  0  0  0
   -3.3634   -1.5859   -2.1006 H   0  0  0  0  0  0  0  0  0  0  0  0
  1  2  1  0
  1 11  1  0
  1 12  1  0
  1 13  1  0
  2  3  1  0
  2 14  1  0
  3  4  2  0
  3  5  1  0
  5  6  2  3
  5  7  1  0
  6 15  1  0
  6 16  1  0
  7  8  1  0
  7 17  1  0
  8  9  1  0
  8 10  2  0
  9 18  1  0
  9 19  1  0
  9 20  1  0
M  END

> <RosettaParamsInstructions>
M  ROOT 7
M  POLY_N_BB 7
M  POLY_CA_BB 5
M  POLY_C_BB 3
M  POLY_O_BB 4
M  POLY_IGNORE 1 10 9 14 11 12 13 18 19 20
M  POLY_UPPER 2
M  POLY_LOWER 8
M  POLY_CHG 0
M  POLY_PROPERTIES PROTEIN POLYMER ALPHA_AA ALIPHATIC
M  END

$$$$
DHA_new
     RDKit          3D

 20 19  0  0  0  0  0  0  0  0999 V2000
    2.6704   -1.0539    2.5912 C   0  0  0  0  0  0  0  0  0  0  0  0
    1.6947   -0.2381    1.8251 N   0  0  0  0  0  0  0  0  0  0  0  0
    0.5291   -0.8381    1.3058 C   0  0  0  0  0  0  0  0  0  0  0  0
    0.3384   -2.0805    1.5085 O   0  0  0  0  0  0  0  0  0  0  0  0
   -0.4409   -0.0722    0.5555 C   0  0  0  0  0  0  0  0  0  0  0  0
   -0.2596    1.1912    0.3422 C   0  0  0  0  0  0  0  0  0  0  0  0
   -1.5848   -0.7632    0.0716 N   0  0  0  0  0  0  0  0  0  0  0  0
   -2.6507   -0.2471   -0.6710 C   0  0  0  0  0  0  0  0  0  0  0  0
   -3.7585   -1.1465   -1.0818 C   0  0  0  0  0  0  0  0  0  0  0  0
   -2.7274    0.9443   -1.0146 O   0  0  0  0  0  0  0  0  0  0  0  0
    3.4922   -1.2579    1.8848 H   0  0  0  0  0  0  0  0  0  0  0  0
    2.1695   -1.9773    2.9516 H   0  0  0  0  0  0  0  0  0  0  0  0
    3.0370   -0.4748    3.4525 H   0  0  0  0  0  0  0  0  0  0  0  0
    1.9864    0.7482    1.7449 H   0  0  0  0  0  0  0  0  0  0  0  0
    0.6505    1.6686    0.7454 H   0  0  0  0  0  0  0  0  0  0  0  0
   -0.9084    1.8703   -0.2016 H   0  0  0  0  0  0  0  0  0  0  0  0
   -1.6772   -1.8227    0.2848 H   0  0  0  0  0  0  0  0  0  0  0  0
   -4.1135   -0.9113   -2.1103 H   0  0  0  0  0  0  0  0  0  0  0  0
   -4.6461   -0.9918   -0.4013 H   0  0  0  0  0  0  0  0  0  0  0  0
   -3.4076   -2.1992   -1.0425 H   0  0  0  0  0  0  0  0  0  0  0  0
  1  2  1  0
  1 11  1  0
  1 12  1  0
  1 13  1  0
  2  3  1  0
  2 14  1  0
  3  4  2  0
  3  5  1  0
  5  6  2  3
  5  7  1  0
  6 15  1  0
  6 16  1  0
  7  8  1  0
  7 17  1  0
  8  9  1  0
  8 10  2  0
  9 18  1  0
  9 19  1  0
  9 20  1  0
M  END

> <RosettaParamsInstructions>
M  ROOT 7
M  POLY_N_BB 7
M  POLY_CA_BB 5
M  POLY_C_BB 3
M  POLY_O_BB 4
M  POLY_IGNORE 1 10 9 14 11 12 13 18 19 20
M  POLY_UPPER 2
M  POLY_LOWER 8
M  POLY_CHG 0
M  POLY_PROPERTIES PROTEIN POLYMER ALPHA_AA ALIPHATIC
M  END

$$$$
DHA_new
     RDKit          3D

 20 19  0  0  0  0  0  0  0  0999 V2000
    2.6529   -1.0859    2.5851 C   0  0  0  0  0  0  0  0  0  0  0  0
    1.6649   -0.2037    1.9311 N   0  0  0  0  0  0  0  0  0  0  0  0
    0.5737   -0.8399    1.2987 C   0  0  0  0  0  0  0  0  0  0  0  0
    0.4581   -2.0945    1.2980 O   0  0  0  0  0  0  0  0  0  0  0  0
   -0.4725   -0.0428    0.6138 C   0  0  0  0  0  0  0  0  0  0  0  0
   -0.3938    1.2692    0.5886 C   0  0  0  0  0  0  0  0  0  0  0  0
   -1.5166   -0.7476    0.0141 N   0  0  0  0  0  0  0  0  0  0  0  0
   -2.6309   -0.2492   -0.6958 C   0  0  0  0  0  0  0  0  0  0  0  0
   -3.6629   -1.1867   -1.2749 C   0  0  0  0  0  0  0  0  0  0  0  0
   -2.8765    0.9610   -0.9137 O   0  0  0  0  0  0  0  0  0  0  0  0
    3.0473   -0.6116    3.5023 H   0  0  0  0  0  0  0  0  0  0  0  0
    3.5063   -1.2045    1.8811 H   0  0  0  0  0  0  0  0  0  0  0  0
    2.2313   -2.0873    2.7608 H   0  0  0  0  0  0  0  0  0  0  0  0
    1.8001    0.8208    1.9566 H   0  0  0  0  0  0  0  0  0  0  0  0
    0.4047    1.8427    1.0453 H   0  0  0  0  0  0  0  0  0  0  0  0
   -1.1430    1.8512    0.0975 H   0  0  0  0  0  0  0  0  0  0  0  0
   -1.4772   -1.8183    0.0981 H   0  0  0  0  0  0  0  0  0  0  0  0
   -3.3964   -2.2147   -0.9556 H   0  0  0  0  0  0  0  0  0  0  0  0
   -3.7585   -1.0707   -2.3546 H   0  0  0  0  0  0  0  0  0  0  0  0
   -4.6175   -0.9399   -0.7357 H   0  0  0  0  0  0  0  0  0  0  0  0
  1  2  1  0
  1 11  1  0
  1 12  1  0
  1 13  1  0
  2  3  1  0
  2 14  1  0
  3  4  2  0
  3  5  1  0
  5  6  2  3
  5  7  1  0
  6 15  1  0
  6 16  1  0
  7  8  1  0
  7 17  1  0
  8  9  1  0
  8 10  2  0
  9 18  1  0
  9 19  1  0
  9 20  1  0
M  END

> <RosettaParamsInstructions>
M  ROOT 7
M  POLY_N_BB 7
M  POLY_CA_BB 5
M  POLY_C_BB 3
M  POLY_O_BB 4
M  POLY_IGNORE 1 10 9 14 11 12 13 18 19 20
M  POLY_UPPER 2
M  POLY_LOWER 8
M  POLY_CHG 0
M  POLY_PROPERTIES PROTEIN POLYMER ALPHA_AA ALIPHATIC
M  END

$$$$
DHA_new
     RDKit          3D

 20 19  0  0  0  0  0  0  0  0999 V2000
    2.6542   -1.0757    2.5904 C   0  0  0  0  0  0  0  0  0  0  0  0
    1.6904   -0.2602    1.8813 N   0  0  0  0  0  0  0  0  0  0  0  0
    0.5469   -0.8043    1.2991 C   0  0  0  0  0  0  0  0  0  0  0  0
    0.3838   -2.0695    1.4195 O   0  0  0  0  0  0  0  0  0  0  0  0
   -0.4695   -0.0272    0.5655 C   0  0  0  0  0  0  0  0  0  0  0  0
   -0.3136    1.2623    0.4367 C   0  0  0  0  0  0  0  0  0  0  0  0
   -1.5640   -0.7040    0.0350 N   0  0  0  0  0  0  0  0  0  0  0  0
   -2.6558   -0.2237   -0.6922 C   0  0  0  0  0  0  0  0  0  0  0  0
   -3.7407   -1.1760   -1.1699 C   0  0  0  0  0  0  0  0  0  0  0  0
   -2.7988    0.9874   -0.9842 O   0  0  0  0  0  0  0  0  0  0  0  0
    2.4905   -1.0526    3.6876 H   0  0  0  0  0  0  0  0  0  0  0  0
    2.5723   -2.1036    2.2022 H   0  0  0  0  0  0  0  0  0  0  0  0
    3.7008   -0.7372    2.3963 H   0  0  0  0  0  0  0  0  0  0  0  0
    1.8973    0.7451    1.8314 H   0  0  0  0  0  0  0  0  0  0  0  0
   -1.0457    1.8444   -0.0955 H   0  0  0  0  0  0  0  0  0  0  0  0
    0.5697    1.7721    0.8711 H   0  0  0  0  0  0  0  0  0  0  0  0
   -1.5707   -1.7677    0.2133 H   0  0  0  0  0  0  0  0  0  0  0  0
   -4.0016   -1.8086   -0.3030 H   0  0  0  0  0  0  0  0  0  0  0  0
   -3.3284   -1.8307   -1.9530 H   0  0  0  0  0  0  0  0  0  0  0  0
   -4.6237   -0.6225   -1.4908 H   0  0  0  0  0  0  0  0  0  0  0  0
  1  2  1  0
  1 11  1  0
  1 12  1  0
  1 13  1  0
  2  3  1  0
  2 14  1  0
  3  4  2  0
  3  5  1  0
  5  6  2  3
  5  7  1  0
  6 15  1  0
  6 16  1  0
  7  8  1  0
  7 17  1  0
  8  9  1  0
  8 10  2  0
  9 18  1  0
  9 19  1  0
  9 20  1  0
M  END

> <RosettaParamsInstructions>
M  ROOT 7
M  POLY_N_BB 7
M  POLY_CA_BB 5
M  POLY_C_BB 3
M  POLY_O_BB 4
M  POLY_IGNORE 1 10 9 14 11 12 13 18 19 20
M  POLY_UPPER 2
M  POLY_LOWER 8
M  POLY_CHG 0
M  POLY_PROPERTIES PROTEIN POLYMER ALPHA_AA ALIPHATIC
M  END

$$$$
DHA_new
     RDKit          3D

 20 19  0  0  0  0  0  0  0  0999 V2000
    2.6060   -1.0585    2.6586 C   0  0  0  0  0  0  0  0  0  0  0  0
    1.6404   -0.2282    1.9205 N   0  0  0  0  0  0  0  0  0  0  0  0
    0.5240   -0.8310    1.3274 C   0  0  0  0  0  0  0  0  0  0  0  0
    0.3622   -2.0794    1.4348 O   0  0  0  0  0  0  0  0  0  0  0  0
   -0.4753   -0.0675    0.5795 C   0  0  0  0  0  0  0  0  0  0  0  0
   -0.3308    1.2185    0.4550 C   0  0  0  0  0  0  0  0  0  0  0  0
   -1.5521   -0.7842    0.0299 N   0  0  0  0  0  0  0  0  0  0  0  0
   -2.6056   -0.2631   -0.7114 C   0  0  0  0  0  0  0  0  0  0  0  0
   -3.6962   -1.1729   -1.2372 C   0  0  0  0  0  0  0  0  0  0  0  0
   -2.7250    0.9294   -0.9841 O   0  0  0  0  0  0  0  0  0  0  0  0
    2.5009   -0.9027    3.7447 H   0  0  0  0  0  0  0  0  0  0  0  0
    3.6233   -0.7148    2.3589 H   0  0  0  0  0  0  0  0  0  0  0  0
    2.4657   -2.0859    2.3227 H   0  0  0  0  0  0  0  0  0  0  0  0
    1.8840    0.7746    1.9057 H   0  0  0  0  0  0  0  0  0  0  0  0
    0.5359    1.7118    0.9113 H   0  0  0  0  0  0  0  0  0  0  0  0
   -1.0053    1.8752   -0.0734 H   0  0  0  0  0  0  0  0  0  0  0  0
   -1.5612   -1.8284    0.1982 H   0  0  0  0  0  0  0  0  0  0  0  0
   -4.0156   -0.7909   -2.2190 H   0  0  0  0  0  0  0  0  0  0  0  0
   -3.2217   -2.1692   -1.3429 H   0  0  0  0  0  0  0  0  0  0  0  0
   -4.5599   -1.1849   -0.5382 H   0  0  0  0  0  0  0  0  0  0  0  0
  1  2  1  0
  1 11  1  0
  1 12  1  0
  1 13  1  0
  2  3  1  0
  2 14  1  0
  3  4  2  0
  3  5  1  0
  5  6  2  3
  5  7  1  0
  6 15  1  0
  6 16  1  0
  7  8  1  0
  7 17  1  0
  8  9  1  0
  8 10  2  0
  9 18  1  0
  9 19  1  0
  9 20  1  0
M  END

> <RosettaParamsInstructions>
M  ROOT 7
M  POLY_N_BB 7
M  POLY_CA_BB 5
M  POLY_C_BB 3
M  POLY_O_BB 4
M  POLY_IGNORE 1 10 9 14 11 12 13 18 19 20
M  POLY_UPPER 2
M  POLY_LOWER 8
M  POLY_CHG 0
M  POLY_PROPERTIES PROTEIN POLYMER ALPHA_AA ALIPHATIC
M  END

$$$$
DHA_new
     RDKit          3D

 20 19  0  0  0  0  0  0  0  0999 V2000
    2.6469   -1.0486    2.5952 C   0  0  0  0  0  0  0  0  0  0  0  0
    1.6666   -0.2173    1.8642 N   0  0  0  0  0  0  0  0  0  0  0  0
    0.5559   -0.8384    1.3172 C   0  0  0  0  0  0  0  0  0  0  0  0
    0.3908   -2.0792    1.4424 O   0  0  0  0  0  0  0  0  0  0  0  0
   -0.4805   -0.0929    0.5684 C   0  0  0  0  0  0  0  0  0  0  0  0
   -0.2827    1.2095    0.4514 C   0  0  0  0  0  0  0  0  0  0  0  0
   -1.5826   -0.7901    0.0402 N   0  0  0  0  0  0  0  0  0  0  0  0
   -2.6270   -0.2522   -0.6760 C   0  0  0  0  0  0  0  0  0  0  0  0
   -3.7367   -1.1339   -1.1755 C   0  0  0  0  0  0  0  0  0  0  0  0
   -2.7350    0.9509   -0.9564 O   0  0  0  0  0  0  0  0  0  0  0  0
    2.4786   -2.1058    2.3710 H   0  0  0  0  0  0  0  0  0  0  0  0
    3.6463   -0.7686    2.1909 H   0  0  0  0  0  0  0  0  0  0  0  0
    2.5707   -0.8563    3.6779 H   0  0  0  0  0  0  0  0  0  0  0  0
    1.9234    0.7813    1.8371 H   0  0  0  0  0  0  0  0  0  0  0  0
    0.5864    1.7256    0.8741 H   0  0  0  0  0  0  0  0  0  0  0  0
   -0.9796    1.8562   -0.0782 H   0  0  0  0  0  0  0  0  0  0  0  0
   -1.5948   -1.8428    0.2222 H   0  0  0  0  0  0  0  0  0  0  0  0
   -3.3691   -2.1560   -1.4026 H   0  0  0  0  0  0  0  0  0  0  0  0
   -4.4774   -1.2570   -0.3419 H   0  0  0  0  0  0  0  0  0  0  0  0
   -4.2067   -0.7367   -2.0808 H   0  0  0  0  0  0  0  0  0  0  0  0
  1  2  1  0
  1 11  1  0
  1 12  1  0
  1 13  1  0
  2  3  1  0
  2 14  1  0
  3  4  2  0
  3  5  1  0
  5  6  2  3
  5  7  1  0
  6 15  1  0
  6 16  1  0
  7  8  1  0
  7 17  1  0
  8  9  1  0
  8 10  2  0
  9 18  1  0
  9 19  1  0
  9 20  1  0
M  END

> <RosettaParamsInstructions>
M  ROOT 7
M  POLY_N_BB 7
M  POLY_CA_BB 5
M  POLY_C_BB 3
M  POLY_O_BB 4
M  POLY_IGNORE 1 10 9 14 11 12 13 18 19 20
M  POLY_UPPER 2
M  POLY_LOWER 8
M  POLY_CHG 0
M  POLY_PROPERTIES PROTEIN POLYMER ALPHA_AA ALIPHATIC
M  END

$$$$
DHA_new
     RDKit          3D

 20 19  0  0  0  0  0  0  0  0999 V2000
    2.2882   -1.5908    2.4252 C   0  0  0  0  0  0  0  0  0  0  0  0
    1.1038   -1.2295    1.6809 N   0  0  0  0  0  0  0  0  0  0  0  0
    0.8359    0.0890    1.3041 C   0  0  0  0  0  0  0  0  0  0  0  0
    1.6865    0.9812    1.6445 O   0  0  0  0  0  0  0  0  0  0  0  0
   -0.3628    0.5045    0.5423 C   0  0  0  0  0  0  0  0  0  0  0  0
   -0.4965    1.7801    0.2502 C   0  0  0  0  0  0  0  0  0  0  0  0
   -1.3256   -0.4336    0.1448 N   0  0  0  0  0  0  0  0  0  0  0  0
   -2.5034   -0.2345   -0.5685 C   0  0  0  0  0  0  0  0  0  0  0  0
   -3.3758   -1.4475   -0.8676 C   0  0  0  0  0  0  0  0  0  0  0  0
   -2.9216    0.8501   -0.9927 O   0  0  0  0  0  0  0  0  0  0  0  0
    2.9431   -0.6924    2.5066 H   0  0  0  0  0  0  0  0  0  0  0  0
    2.0446   -1.9046    3.4690 H   0  0  0  0  0  0  0  0  0  0  0  0
    2.8871   -2.3764    1.9329 H   0  0  0  0  0  0  0  0  0  0  0  0
    0.4556   -1.9917    1.4353 H   0  0  0  0  0  0  0  0  0  0  0  0
    0.2578    2.5223    0.5603 H   0  0  0  0  0  0  0  0  0  0  0  0
   -1.3223    2.1505   -0.2887 H   0  0  0  0  0  0  0  0  0  0  0  0
   -1.1244   -1.4506    0.4323 H   0  0  0  0  0  0  0  0  0  0  0  0
   -2.7818   -2.3765   -0.7812 H   0  0  0  0  0  0  0  0  0  0  0  0
   -3.6723   -1.3282   -1.9252 H   0  0  0  0  0  0  0  0  0  0  0  0
   -4.2226   -1.4737   -0.1637 H   0  0  0  0  0  0  0  0  0  0  0  0
  1  2  1  0
  1 11  1  0
  1 12  1  0
  1 13  1  0
  2  3  1  0
  2 14  1  0
  3  4  2  0
  3  5  1  0
  5  6  2  3
  5  7  1  0
  6 15  1  0
  6 16  1  0
  7  8  1  0
  7 17  1  0
  8  9  1  0
  8 10  2  0
  9 18  1  0
  9 19  1  0
  9 20  1  0
M  END

> <RosettaParamsInstructions>
M  ROOT 7
M  POLY_N_BB 7
M  POLY_CA_BB 5
M  POLY_C_BB 3
M  POLY_O_BB 4
M  POLY_IGNORE 1 10 9 14 11 12 13 18 19 20
M  POLY_UPPER 2
M  POLY_LOWER 8
M  POLY_CHG 0
M  POLY_PROPERTIES PROTEIN POLYMER ALPHA_AA ALIPHATIC
M  END

$$$$
DHA_new
     RDKit          3D

 20 19  0  0  0  0  0  0  0  0999 V2000
    2.6280   -1.0774    2.5839 C   0  0  0  0  0  0  0  0  0  0  0  0
    1.6458   -0.2000    1.9037 N   0  0  0  0  0  0  0  0  0  0  0  0
    0.5527   -0.8126    1.3028 C   0  0  0  0  0  0  0  0  0  0  0  0
    0.4411   -2.0773    1.3595 O   0  0  0  0  0  0  0  0  0  0  0  0
   -0.4858   -0.0390    0.5988 C   0  0  0  0  0  0  0  0  0  0  0  0
   -0.4005    1.2569    0.5231 C   0  0  0  0  0  0  0  0  0  0  0  0
   -1.5459   -0.7637    0.0289 N   0  0  0  0  0  0  0  0  0  0  0  0
   -2.6121   -0.2194   -0.6692 C   0  0  0  0  0  0  0  0  0  0  0  0
   -3.6493   -1.1772   -1.2024 C   0  0  0  0  0  0  0  0  0  0  0  0
   -2.7872    0.9880   -0.8938 O   0  0  0  0  0  0  0  0  0  0  0  0
    3.4203   -0.4822    3.0558 H   0  0  0  0  0  0  0  0  0  0  0  0
    3.1065   -1.6535    1.7487 H   0  0  0  0  0  0  0  0  0  0  0  0
    2.1347   -1.7911    3.2457 H   0  0  0  0  0  0  0  0  0  0  0  0
    1.8313    0.8145    1.9163 H   0  0  0  0  0  0  0  0  0  0  0  0
   -1.1112    1.8921    0.0310 H   0  0  0  0  0  0  0  0  0  0  0  0
    0.4691    1.7560    0.9999 H   0  0  0  0  0  0  0  0  0  0  0  0
   -1.5123   -1.8255    0.1536 H   0  0  0  0  0  0  0  0  0  0  0  0
   -3.7553   -1.9848   -0.4741 H   0  0  0  0  0  0  0  0  0  0  0  0
   -3.3508   -1.5897   -2.1798 H   0  0  0  0  0  0  0  0  0  0  0  0
   -4.6257   -0.6663   -1.2916 H   0  0  0  0  0  0  0  0  0  0  0  0
  1  2  1  0
  1 11  1  0
  1 12  1  0
  1 13  1  0
  2  3  1  0
  2 14  1  0
  3  4  2  0
  3  5  1  0
  5  6  2  3
  5  7  1  0
  6 15  1  0
  6 16  1  0
  7  8  1  0
  7 17  1  0
  8  9  1  0
  8 10  2  0
  9 18  1  0
  9 19  1  0
  9 20  1  0
M  END

> <RosettaParamsInstructions>
M  ROOT 7
M  POLY_N_BB 7
M  POLY_CA_BB 5
M  POLY_C_BB 3
M  POLY_O_BB 4
M  POLY_IGNORE 1 10 9 14 11 12 13 18 19 20
M  POLY_UPPER 2
M  POLY_LOWER 8
M  POLY_CHG 0
M  POLY_PROPERTIES PROTEIN POLYMER ALPHA_AA ALIPHATIC
M  END

$$$$
DHA_new
     RDKit          3D

 20 19  0  0  0  0  0  0  0  0999 V2000
    2.5941   -1.0410    2.6678 C   0  0  0  0  0  0  0  0  0  0  0  0
    1.6669   -0.2311    1.8713 N   0  0  0  0  0  0  0  0  0  0  0  0
    0.5347   -0.8244    1.3554 C   0  0  0  0  0  0  0  0  0  0  0  0
    0.2938   -2.0532    1.5639 O   0  0  0  0  0  0  0  0  0  0  0  0
   -0.4444   -0.0703    0.5436 C   0  0  0  0  0  0  0  0  0  0  0  0
   -0.2407    1.1910    0.3032 C   0  0  0  0  0  0  0  0  0  0  0  0
   -1.5855   -0.7529    0.0480 N   0  0  0  0  0  0  0  0  0  0  0  0
   -2.6089   -0.2372   -0.7218 C   0  0  0  0  0  0  0  0  0  0  0  0
   -3.7405   -1.1469   -1.1461 C   0  0  0  0  0  0  0  0  0  0  0  0
   -2.6943    0.9334   -1.1115 O   0  0  0  0  0  0  0  0  0  0  0  0
    2.1162   -1.9788    2.9859 H   0  0  0  0  0  0  0  0  0  0  0  0
    3.4944   -1.2569    2.0485 H   0  0  0  0  0  0  0  0  0  0  0  0
    2.9669   -0.4657    3.5477 H   0  0  0  0  0  0  0  0  0  0  0  0
    1.9442    0.7494    1.7566 H   0  0  0  0  0  0  0  0  0  0  0  0
    0.6581    1.6663    0.7115 H   0  0  0  0  0  0  0  0  0  0  0  0
   -0.9132    1.7807   -0.2752 H   0  0  0  0  0  0  0  0  0  0  0  0
   -1.6158   -1.7872    0.3282 H   0  0  0  0  0  0  0  0  0  0  0  0
   -3.6576   -1.3420   -2.2177 H   0  0  0  0  0  0  0  0  0  0  0  0
   -3.6692   -2.1093   -0.6040 H   0  0  0  0  0  0  0  0  0  0  0  0
   -4.7055   -0.6760   -0.9144 H   0  0  0  0  0  0  0  0  0  0  0  0
  1  2  1  0
  1 11  1  0
  1 12  1  0
  1 13  1  0
  2  3  1  0
  2 14  1  0
  3  4  2  0
  3  5  1  0
  5  6  2  3
  5  7  1  0
  6 15  1  0
  6 16  1  0
  7  8  1  0
  7 17  1  0
  8  9  1  0
  8 10  2  0
  9 18  1  0
  9 19  1  0
  9 20  1  0
M  END

> <RosettaParamsInstructions>
M  ROOT 7
M  POLY_N_BB 7
M  POLY_CA_BB 5
M  POLY_C_BB 3
M  POLY_O_BB 4
M  POLY_IGNORE 1 10 9 14 11 12 13 18 19 20
M  POLY_UPPER 2
M  POLY_LOWER 8
M  POLY_CHG 0
M  POLY_PROPERTIES PROTEIN POLYMER ALPHA_AA ALIPHATIC
M  END

$$$$
DHA_new
     RDKit          3D

 20 19  0  0  0  0  0  0  0  0999 V2000
    2.5934   -1.0861    2.6374 C   0  0  0  0  0  0  0  0  0  0  0  0
    1.7028   -0.2384    1.8389 N   0  0  0  0  0  0  0  0  0  0  0  0
    0.5222   -0.8124    1.3376 C   0  0  0  0  0  0  0  0  0  0  0  0
    0.2920   -2.0298    1.6025 O   0  0  0  0  0  0  0  0  0  0  0  0
   -0.4416   -0.0451    0.5227 C   0  0  0  0  0  0  0  0  0  0  0  0
   -0.2279    1.2156    0.2339 C   0  0  0  0  0  0  0  0  0  0  0  0
   -1.5786   -0.7513    0.0902 N   0  0  0  0  0  0  0  0  0  0  0  0
   -2.6013   -0.2396   -0.6752 C   0  0  0  0  0  0  0  0  0  0  0  0
   -3.7564   -1.1371   -1.0554 C   0  0  0  0  0  0  0  0  0  0  0  0
   -2.6737    0.9165   -1.0969 O   0  0  0  0  0  0  0  0  0  0  0  0
    2.5522   -2.1350    2.2700 H   0  0  0  0  0  0  0  0  0  0  0  0
    2.2971   -0.9974    3.6836 H   0  0  0  0  0  0  0  0  0  0  0  0
    3.6184   -0.7026    2.4424 H   0  0  0  0  0  0  0  0  0  0  0  0
    1.9498    0.7517    1.6584 H   0  0  0  0  0  0  0  0  0  0  0  0
   -0.8834    1.8102   -0.3442 H   0  0  0  0  0  0  0  0  0  0  0  0
    0.6753    1.7210    0.5958 H   0  0  0  0  0  0  0  0  0  0  0  0
   -1.6521   -1.7831    0.3858 H   0  0  0  0  0  0  0  0  0  0  0  0
   -4.4994   -0.6392   -1.6740 H   0  0  0  0  0  0  0  0  0  0  0  0
   -3.2639   -1.9930   -1.6011 H   0  0  0  0  0  0  0  0  0  0  0  0
   -4.2315   -1.4774   -0.1117 H   0  0  0  0  0  0  0  0  0  0  0  0
  1  2  1  0
  1 11  1  0
  1 12  1  0
  1 13  1  0
  2  3  1  0
  2 14  1  0
  3  4  2  0
  3  5  1  0
  5  6  2  3
  5  7  1  0
  6 15  1  0
  6 16  1  0
  7  8  1  0
  7 17  1  0
  8  9  1  0
  8 10  2  0
  9 18  1  0
  9 19  1  0
  9 20  1  0
M  END

> <RosettaParamsInstructions>
M  ROOT 7
M  POLY_N_BB 7
M  POLY_CA_BB 5
M  POLY_C_BB 3
M  POLY_O_BB 4
M  POLY_IGNORE 1 10 9 14 11 12 13 18 19 20
M  POLY_UPPER 2
M  POLY_LOWER 8
M  POLY_CHG 0
M  POLY_PROPERTIES PROTEIN POLYMER ALPHA_AA ALIPHATIC
M  END

$$$$
DHA_new
     RDKit          3D

 20 19  0  0  0  0  0  0  0  0999 V2000
    2.6560   -1.0828    2.5866 C   0  0  0  0  0  0  0  0  0  0  0  0
    1.6901   -0.2301    1.8726 N   0  0  0  0  0  0  0  0  0  0  0  0
    0.5565   -0.8387    1.3108 C   0  0  0  0  0  0  0  0  0  0  0  0
    0.3738   -2.0876    1.4176 O   0  0  0  0  0  0  0  0  0  0  0  0
   -0.4629   -0.0628    0.5786 C   0  0  0  0  0  0  0  0  0  0  0  0
   -0.2680    1.2342    0.4707 C   0  0  0  0  0  0  0  0  0  0  0  0
   -1.5696   -0.7523    0.0464 N   0  0  0  0  0  0  0  0  0  0  0  0
   -2.6509   -0.2488   -0.6754 C   0  0  0  0  0  0  0  0  0  0  0  0
   -3.7391   -1.1683   -1.1573 C   0  0  0  0  0  0  0  0  0  0  0  0
   -2.8095    0.9507   -0.9743 O   0  0  0  0  0  0  0  0  0  0  0  0
    2.9989   -0.5078    3.4745 H   0  0  0  0  0  0  0  0  0  0  0  0
    2.1565   -2.0154    2.8328 H   0  0  0  0  0  0  0  0  0  0  0  0
    3.5108   -1.2077    1.8828 H   0  0  0  0  0  0  0  0  0  0  0  0
    1.9341    0.7624    1.8446 H   0  0  0  0  0  0  0  0  0  0  0  0
   -0.9885    1.8283   -0.0546 H   0  0  0  0  0  0  0  0  0  0  0  0
    0.5815    1.7727    0.8777 H   0  0  0  0  0  0  0  0  0  0  0  0
   -1.5855   -1.8067    0.2179 H   0  0  0  0  0  0  0  0  0  0  0  0
   -3.7236   -2.0593   -0.4970 H   0  0  0  0  0  0  0  0  0  0  0  0
   -3.5509   -1.4601   -2.2060 H   0  0  0  0  0  0  0  0  0  0  0  0
   -4.7163   -0.6722   -1.1083 H   0  0  0  0  0  0  0  0  0  0  0  0
  1  2  1  0
  1 11  1  0
  1 12  1  0
  1 13  1  0
  2  3  1  0
  2 14  1  0
  3  4  2  0
  3  5  1  0
  5  6  2  3
  5  7  1  0
  6 15  1  0
  6 16  1  0
  7  8  1  0
  7 17  1  0
  8  9  1  0
  8 10  2  0
  9 18  1  0
  9 19  1  0
  9 20  1  0
M  END

> <RosettaParamsInstructions>
M  ROOT 7
M  POLY_N_BB 7
M  POLY_CA_BB 5
M  POLY_C_BB 3
M  POLY_O_BB 4
M  POLY_IGNORE 1 10 9 14 11 12 13 18 19 20
M  POLY_UPPER 2
M  POLY_LOWER 8
M  POLY_CHG 0
M  POLY_PROPERTIES PROTEIN POLYMER ALPHA_AA ALIPHATIC
M  END

$$$$
DHA_new
     RDKit          3D

 20 19  0  0  0  0  0  0  0  0999 V2000
    2.5947   -1.0482    2.6636 C   0  0  0  0  0  0  0  0  0  0  0  0
    1.6723   -0.2290    1.8735 N   0  0  0  0  0  0  0  0  0  0  0  0
    0.5250   -0.8360    1.3494 C   0  0  0  0  0  0  0  0  0  0  0  0
    0.3329   -2.0690    1.5807 O   0  0  0  0  0  0  0  0  0  0  0  0
   -0.4331   -0.0873    0.5576 C   0  0  0  0  0  0  0  0  0  0  0  0
   -0.2298    1.1725    0.3255 C   0  0  0  0  0  0  0  0  0  0  0  0
   -1.5601   -0.7662    0.0660 N   0  0  0  0  0  0  0  0  0  0  0  0
   -2.6116   -0.2487   -0.7172 C   0  0  0  0  0  0  0  0  0  0  0  0
   -3.7431   -1.1541   -1.1476 C   0  0  0  0  0  0  0  0  0  0  0  0
   -2.7062    0.9206   -1.1044 O   0  0  0  0  0  0  0  0  0  0  0  0
    3.5715   -1.0658    2.1324 H   0  0  0  0  0  0  0  0  0  0  0  0
    2.6872   -0.5470    3.6416 H   0  0  0  0  0  0  0  0  0  0  0  0
    2.2450   -2.0850    2.7320 H   0  0  0  0  0  0  0  0  0  0  0  0
    1.9319    0.7815    1.7459 H   0  0  0  0  0  0  0  0  0  0  0  0
    0.6460    1.7288    0.6994 H   0  0  0  0  0  0  0  0  0  0  0  0
   -0.9209    1.7514   -0.2566 H   0  0  0  0  0  0  0  0  0  0  0  0
   -1.5950   -1.8088    0.3389 H   0  0  0  0  0  0  0  0  0  0  0  0
   -3.9214   -0.9438   -2.2118 H   0  0  0  0  0  0  0  0  0  0  0  0
   -3.4339   -2.2118   -0.9601 H   0  0  0  0  0  0  0  0  0  0  0  0
   -4.6580   -0.9064   -0.5678 H   0  0  0  0  0  0  0  0  0  0  0  0
  1  2  1  0
  1 11  1  0
  1 12  1  0
  1 13  1  0
  2  3  1  0
  2 14  1  0
  3  4  2  0
  3  5  1  0
  5  6  2  3
  5  7  1  0
  6 15  1  0
  6 16  1  0
  7  8  1  0
  7 17  1  0
  8  9  1  0
  8 10  2  0
  9 18  1  0
  9 19  1  0
  9 20  1  0
M  END

> <RosettaParamsInstructions>
M  ROOT 7
M  POLY_N_BB 7
M  POLY_CA_BB 5
M  POLY_C_BB 3
M  POLY_O_BB 4
M  POLY_IGNORE 1 10 9 14 11 12 13 18 19 20
M  POLY_UPPER 2
M  POLY_LOWER 8
M  POLY_CHG 0
M  POLY_PROPERTIES PROTEIN POLYMER ALPHA_AA ALIPHATIC
M  END

$$$$
DHA_new
     RDKit          3D

 20 19  0  0  0  0  0  0  0  0999 V2000
    2.6594   -1.0617    2.5960 C   0  0  0  0  0  0  0  0  0  0  0  0
    1.7278   -0.2500    1.8440 N   0  0  0  0  0  0  0  0  0  0  0  0
    0.5550   -0.7934    1.3163 C   0  0  0  0  0  0  0  0  0  0  0  0
    0.3574   -2.0432    1.5376 O   0  0  0  0  0  0  0  0  0  0  0  0
   -0.4573   -0.0503    0.5364 C   0  0  0  0  0  0  0  0  0  0  0  0
   -0.2476    1.2249    0.3154 C   0  0  0  0  0  0  0  0  0  0  0  0
   -1.5949   -0.7418    0.0686 N   0  0  0  0  0  0  0  0  0  0  0  0
   -2.6725   -0.2605   -0.6789 C   0  0  0  0  0  0  0  0  0  0  0  0
   -3.8110   -1.1727   -1.0882 C   0  0  0  0  0  0  0  0  0  0  0  0
   -2.7650    0.9231   -1.0488 O   0  0  0  0  0  0  0  0  0  0  0  0
    3.4759   -1.4770    1.9475 H   0  0  0  0  0  0  0  0  0  0  0  0
    2.1674   -1.9461    3.0630 H   0  0  0  0  0  0  0  0  0  0  0  0
    3.1786   -0.4435    3.3700 H   0  0  0  0  0  0  0  0  0  0  0  0
    1.9653    0.7421    1.7147 H   0  0  0  0  0  0  0  0  0  0  0  0
   -0.9460    1.8226   -0.2455 H   0  0  0  0  0  0  0  0  0  0  0  0
    0.6547    1.7339    0.6969 H   0  0  0  0  0  0  0  0  0  0  0  0
   -1.6122   -1.7864    0.3383 H   0  0  0  0  0  0  0  0  0  0  0  0
   -3.8554   -2.0220   -0.3797 H   0  0  0  0  0  0  0  0  0  0  0  0
   -3.6483   -1.4613   -2.1319 H   0  0  0  0  0  0  0  0  0  0  0  0
   -4.7377   -0.5891   -1.0310 H   0  0  0  0  0  0  0  0  0  0  0  0
  1  2  1  0
  1 11  1  0
  1 12  1  0
  1 13  1  0
  2  3  1  0
  2 14  1  0
  3  4  2  0
  3  5  1  0
  5  6  2  3
  5  7  1  0
  6 15  1  0
  6 16  1  0
  7  8  1  0
  7 17  1  0
  8  9  1  0
  8 10  2  0
  9 18  1  0
  9 19  1  0
  9 20  1  0
M  END

> <RosettaParamsInstructions>
M  ROOT 7
M  POLY_N_BB 7
M  POLY_CA_BB 5
M  POLY_C_BB 3
M  POLY_O_BB 4
M  POLY_IGNORE 1 10 9 14 11 12 13 18 19 20
M  POLY_UPPER 2
M  POLY_LOWER 8
M  POLY_CHG 0
M  POLY_PROPERTIES PROTEIN POLYMER ALPHA_AA ALIPHATIC
M  END

$$$$
DHA_new
     RDKit          3D

 20 19  0  0  0  0  0  0  0  0999 V2000
    2.6882   -1.0756    2.5104 C   0  0  0  0  0  0  0  0  0  0  0  0
    1.6470   -0.2315    1.9063 N   0  0  0  0  0  0  0  0  0  0  0  0
    0.5583   -0.8392    1.2513 C   0  0  0  0  0  0  0  0  0  0  0  0
    0.5109   -2.1078    1.2034 O   0  0  0  0  0  0  0  0  0  0  0  0
   -0.5095   -0.0522    0.6306 C   0  0  0  0  0  0  0  0  0  0  0  0
   -0.4509    1.2532    0.6857 C   0  0  0  0  0  0  0  0  0  0  0  0
   -1.5404   -0.7887    0.0079 N   0  0  0  0  0  0  0  0  0  0  0  0
   -2.6493   -0.2541   -0.6412 C   0  0  0  0  0  0  0  0  0  0  0  0
   -3.6752   -1.1887   -1.2640 C   0  0  0  0  0  0  0  0  0  0  0  0
   -2.8830    0.9674   -0.7606 O   0  0  0  0  0  0  0  0  0  0  0  0
    2.7329   -0.8962    3.6007 H   0  0  0  0  0  0  0  0  0  0  0  0
    3.6539   -0.7388    2.0832 H   0  0  0  0  0  0  0  0  0  0  0  0
    2.5636   -2.1299    2.2296 H   0  0  0  0  0  0  0  0  0  0  0  0
    1.8067    0.7806    2.0168 H   0  0  0  0  0  0  0  0  0  0  0  0
   -1.1996    1.9095    0.2521 H   0  0  0  0  0  0  0  0  0  0  0  0
    0.3839    1.7288    1.1881 H   0  0  0  0  0  0  0  0  0  0  0  0
   -1.4617   -1.8473    0.0380 H   0  0  0  0  0  0  0  0  0  0  0  0
   -3.6325   -2.1162   -0.6877 H   0  0  0  0  0  0  0  0  0  0  0  0
   -4.6816   -0.6944   -1.1849 H   0  0  0  0  0  0  0  0  0  0  0  0
   -3.4681   -1.3310   -2.3248 H   0  0  0  0  0  0  0  0  0  0  0  0
  1  2  1  0
  1 11  1  0
  1 12  1  0
  1 13  1  0
  2  3  1  0
  2 14  1  0
  3  4  2  0
  3  5  1  0
  5  6  2  3
  5  7  1  0
  6 15  1  0
  6 16  1  0
  7  8  1  0
  7 17  1  0
  8  9  1  0
  8 10  2  0
  9 18  1  0
  9 19  1  0
  9 20  1  0
M  END

> <RosettaParamsInstructions>
M  ROOT 7
M  POLY_N_BB 7
M  POLY_CA_BB 5
M  POLY_C_BB 3
M  POLY_O_BB 4
M  POLY_IGNORE 1 10 9 14 11 12 13 18 19 20
M  POLY_UPPER 2
M  POLY_LOWER 8
M  POLY_CHG 0
M  POLY_PROPERTIES PROTEIN POLYMER ALPHA_AA ALIPHATIC
M  END

$$$$
DHA_new
     RDKit          3D

 20 19  0  0  0  0  0  0  0  0999 V2000
    2.3104   -1.5729    2.4245 C   0  0  0  0  0  0  0  0  0  0  0  0
    1.1140   -1.2205    1.6729 N   0  0  0  0  0  0  0  0  0  0  0  0
    0.8114    0.1049    1.3333 C   0  0  0  0  0  0  0  0  0  0  0  0
    1.6137    1.0016    1.7003 O   0  0  0  0  0  0  0  0  0  0  0  0
   -0.3863    0.5176    0.5737 C   0  0  0  0  0  0  0  0  0  0  0  0
   -0.5699    1.7870    0.3113 C   0  0  0  0  0  0  0  0  0  0  0  0
   -1.3198   -0.4566    0.1384 N   0  0  0  0  0  0  0  0  0  0  0  0
   -2.4855   -0.2188   -0.5812 C   0  0  0  0  0  0  0  0  0  0  0  0
   -3.3452   -1.4093   -0.9466 C   0  0  0  0  0  0  0  0  0  0  0  0
   -2.9314    0.8685   -0.9769 O   0  0  0  0  0  0  0  0  0  0  0  0
    3.0867   -0.8000    2.3614 H   0  0  0  0  0  0  0  0  0  0  0  0
    2.7346   -2.5387    2.0240 H   0  0  0  0  0  0  0  0  0  0  0  0
    2.0814   -1.7536    3.4961 H   0  0  0  0  0  0  0  0  0  0  0  0
    0.5062   -2.0142    1.4088 H   0  0  0  0  0  0  0  0  0  0  0  0
   -1.3969    2.1714   -0.2252 H   0  0  0  0  0  0  0  0  0  0  0  0
    0.1937    2.4877    0.6791 H   0  0  0  0  0  0  0  0  0  0  0  0
   -1.1266   -1.4846    0.3772 H   0  0  0  0  0  0  0  0  0  0  0  0
   -3.9144   -1.6501   -0.0325 H   0  0  0  0  0  0  0  0  0  0  0  0
   -2.6348   -2.2432   -1.1636 H   0  0  0  0  0  0  0  0  0  0  0  0
   -3.9477   -1.2285   -1.8340 H   0  0  0  0  0  0  0  0  0  0  0  0
  1  2  1  0
  1 11  1  0
  1 12  1  0
  1 13  1  0
  2  3  1  0
  2 14  1  0
  3  4  2  0
  3  5  1  0
  5  6  2  3
  5  7  1  0
  6 15  1  0
  6 16  1  0
  7  8  1  0
  7 17  1  0
  8  9  1  0
  8 10  2  0
  9 18  1  0
  9 19  1  0
  9 20  1  0
M  END

> <RosettaParamsInstructions>
M  ROOT 7
M  POLY_N_BB 7
M  POLY_CA_BB 5
M  POLY_C_BB 3
M  POLY_O_BB 4
M  POLY_IGNORE 1 10 9 14 11 12 13 18 19 20
M  POLY_UPPER 2
M  POLY_LOWER 8
M  POLY_CHG 0
M  POLY_PROPERTIES PROTEIN POLYMER ALPHA_AA ALIPHATIC
M  END

$$$$
DHA_new
     RDKit          3D

 20 19  0  0  0  0  0  0  0  0999 V2000
    2.6626   -1.0599    2.6006 C   0  0  0  0  0  0  0  0  0  0  0  0
    1.6780   -0.2529    1.8379 N   0  0  0  0  0  0  0  0  0  0  0  0
    0.5226   -0.8482    1.3105 C   0  0  0  0  0  0  0  0  0  0  0  0
    0.3235   -2.0660    1.4854 O   0  0  0  0  0  0  0  0  0  0  0  0
   -0.4583   -0.0710    0.5570 C   0  0  0  0  0  0  0  0  0  0  0  0
   -0.2802    1.2222    0.3521 C   0  0  0  0  0  0  0  0  0  0  0  0
   -1.5806   -0.7975    0.0795 N   0  0  0  0  0  0  0  0  0  0  0  0
   -2.6238   -0.2296   -0.6606 C   0  0  0  0  0  0  0  0  0  0  0  0
   -3.7563   -1.1282   -1.1034 C   0  0  0  0  0  0  0  0  0  0  0  0
   -2.7451    0.9457   -1.0108 O   0  0  0  0  0  0  0  0  0  0  0  0
    3.6040   -1.0272    1.9977 H   0  0  0  0  0  0  0  0  0  0  0  0
    2.2717   -2.0952    2.6641 H   0  0  0  0  0  0  0  0  0  0  0  0
    2.8439   -0.5811    3.5672 H   0  0  0  0  0  0  0  0  0  0  0  0
    1.9618    0.7440    1.7647 H   0  0  0  0  0  0  0  0  0  0  0  0
    0.6085    1.6976    0.7536 H   0  0  0  0  0  0  0  0  0  0  0  0
   -0.9583    1.8206   -0.1834 H   0  0  0  0  0  0  0  0  0  0  0  0
   -1.6394   -1.8514    0.2965 H   0  0  0  0  0  0  0  0  0  0  0  0
   -4.7102   -0.5679   -1.1673 H   0  0  0  0  0  0  0  0  0  0  0  0
   -3.4684   -1.5650   -2.0703 H   0  0  0  0  0  0  0  0  0  0  0  0
   -3.8624   -1.9410   -0.3301 H   0  0  0  0  0  0  0  0  0  0  0  0
  1  2  1  0
  1 11  1  0
  1 12  1  0
  1 13  1  0
  2  3  1  0
  2 14  1  0
  3  4  2  0
  3  5  1  0
  5  6  2  3
  5  7  1  0
  6 15  1  0
  6 16  1  0
  7  8  1  0
  7 17  1  0
  8  9  1  0
  8 10  2  0
  9 18  1  0
  9 19  1  0
  9 20  1  0
M  END

> <RosettaParamsInstructions>
M  ROOT 7
M  POLY_N_BB 7
M  POLY_CA_BB 5
M  POLY_C_BB 3
M  POLY_O_BB 4
M  POLY_IGNORE 1 10 9 14 11 12 13 18 19 20
M  POLY_UPPER 2
M  POLY_LOWER 8
M  POLY_CHG 0
M  POLY_PROPERTIES PROTEIN POLYMER ALPHA_AA ALIPHATIC
M  END

$$$$
DHA_new
     RDKit          3D

 20 19  0  0  0  0  0  0  0  0999 V2000
    2.6961   -1.1004    2.5043 C   0  0  0  0  0  0  0  0  0  0  0  0
    1.7205   -0.2130    1.8765 N   0  0  0  0  0  0  0  0  0  0  0  0
    0.5886   -0.7793    1.2748 C   0  0  0  0  0  0  0  0  0  0  0  0
    0.4695   -2.0473    1.3074 O   0  0  0  0  0  0  0  0  0  0  0  0
   -0.4768   -0.0334    0.6069 C   0  0  0  0  0  0  0  0  0  0  0  0
   -0.4142    1.2781    0.5386 C   0  0  0  0  0  0  0  0  0  0  0  0
   -1.5453   -0.7840    0.0560 N   0  0  0  0  0  0  0  0  0  0  0  0
   -2.6501   -0.2516   -0.6174 C   0  0  0  0  0  0  0  0  0  0  0  0
   -3.7064   -1.1867   -1.1468 C   0  0  0  0  0  0  0  0  0  0  0  0
   -2.8702    0.9678   -0.8399 O   0  0  0  0  0  0  0  0  0  0  0  0
    3.7139   -0.6531    2.3621 H   0  0  0  0  0  0  0  0  0  0  0  0
    2.4711   -1.2369    3.5844 H   0  0  0  0  0  0  0  0  0  0  0  0
    2.6390   -2.0893    2.0169 H   0  0  0  0  0  0  0  0  0  0  0  0
    1.8536    0.8155    1.8709 H   0  0  0  0  0  0  0  0  0  0  0  0
    0.4460    1.8130    0.9876 H   0  0  0  0  0  0  0  0  0  0  0  0
   -1.1271    1.9291    0.0797 H   0  0  0  0  0  0  0  0  0  0  0  0
   -1.5414   -1.8533    0.1430 H   0  0  0  0  0  0  0  0  0  0  0  0
   -4.6008   -1.1937   -0.5194 H   0  0  0  0  0  0  0  0  0  0  0  0
   -3.9803   -0.8244   -2.1619 H   0  0  0  0  0  0  0  0  0  0  0  0
   -3.2920   -2.2092   -1.1827 H   0  0  0  0  0  0  0  0  0  0  0  0
  1  2  1  0
  1 11  1  0
  1 12  1  0
  1 13  1  0
  2  3  1  0
  2 14  1  0
  3  4  2  0
  3  5  1  0
  5  6  2  3
  5  7  1  0
  6 15  1  0
  6 16  1  0
  7  8  1  0
  7 17  1  0
  8  9  1  0
  8 10  2  0
  9 18  1  0
  9 19  1  0
  9 20  1  0
M  END

> <RosettaParamsInstructions>
M  ROOT 7
M  POLY_N_BB 7
M  POLY_CA_BB 5
M  POLY_C_BB 3
M  POLY_O_BB 4
M  POLY_IGNORE 1 10 9 14 11 12 13 18 19 20
M  POLY_UPPER 2
M  POLY_LOWER 8
M  POLY_CHG 0
M  POLY_PROPERTIES PROTEIN POLYMER ALPHA_AA ALIPHATIC
M  END

$$$$
DHA_new
     RDKit          3D

 20 19  0  0  0  0  0  0  0  0999 V2000
    2.7196   -1.0715    2.4847 C   0  0  0  0  0  0  0  0  0  0  0  0
    1.6849   -0.2221    1.9043 N   0  0  0  0  0  0  0  0  0  0  0  0
    0.5892   -0.8241    1.2504 C   0  0  0  0  0  0  0  0  0  0  0  0
    0.5462   -2.0839    1.1925 O   0  0  0  0  0  0  0  0  0  0  0  0
   -0.5050   -0.0490    0.6334 C   0  0  0  0  0  0  0  0  0  0  0  0
   -0.4741    1.2661    0.6857 C   0  0  0  0  0  0  0  0  0  0  0  0
   -1.5361   -0.7838    0.0137 N   0  0  0  0  0  0  0  0  0  0  0  0
   -2.6635   -0.2400   -0.6286 C   0  0  0  0  0  0  0  0  0  0  0  0
   -3.6945   -1.1577   -1.2530 C   0  0  0  0  0  0  0  0  0  0  0  0
   -2.9261    0.9708   -0.7500 O   0  0  0  0  0  0  0  0  0  0  0  0
    2.5297   -1.2377    3.5633 H   0  0  0  0  0  0  0  0  0  0  0  0
    3.6828   -0.5770    2.3608 H   0  0  0  0  0  0  0  0  0  0  0  0
    2.7327   -2.0718    2.0018 H   0  0  0  0  0  0  0  0  0  0  0  0
    1.8181    0.8034    2.0086 H   0  0  0  0  0  0  0  0  0  0  0  0
    0.3453    1.7943    1.1767 H   0  0  0  0  0  0  0  0  0  0  0  0
   -1.2240    1.8833    0.2651 H   0  0  0  0  0  0  0  0  0  0  0  0
   -1.4302   -1.8550    0.0474 H   0  0  0  0  0  0  0  0  0  0  0  0
   -4.5126   -1.3647   -0.5431 H   0  0  0  0  0  0  0  0  0  0  0  0
   -4.0772   -0.7098   -2.1744 H   0  0  0  0  0  0  0  0  0  0  0  0
   -3.2119   -2.1221   -1.4984 H   0  0  0  0  0  0  0  0  0  0  0  0
  1  2  1  0
  1 11  1  0
  1 12  1  0
  1 13  1  0
  2  3  1  0
  2 14  1  0
  3  4  2  0
  3  5  1  0
  5  6  2  3
  5  7  1  0
  6 15  1  0
  6 16  1  0
  7  8  1  0
  7 17  1  0
  8  9  1  0
  8 10  2  0
  9 18  1  0
  9 19  1  0
  9 20  1  0
M  END

> <RosettaParamsInstructions>
M  ROOT 7
M  POLY_N_BB 7
M  POLY_CA_BB 5
M  POLY_C_BB 3
M  POLY_O_BB 4
M  POLY_IGNORE 1 10 9 14 11 12 13 18 19 20
M  POLY_UPPER 2
M  POLY_LOWER 8
M  POLY_CHG 0
M  POLY_PROPERTIES PROTEIN POLYMER ALPHA_AA ALIPHATIC
M  END

$$$$
DHA_new
     RDKit          3D

 20 19  0  0  0  0  0  0  0  0999 V2000
    2.6926   -1.0358    2.6007 C   0  0  0  0  0  0  0  0  0  0  0  0
    1.6883   -0.2224    1.8707 N   0  0  0  0  0  0  0  0  0  0  0  0
    0.5554   -0.8250    1.3038 C   0  0  0  0  0  0  0  0  0  0  0  0
    0.4183   -2.0719    1.4334 O   0  0  0  0  0  0  0  0  0  0  0  0
   -0.4625   -0.0944    0.5797 C   0  0  0  0  0  0  0  0  0  0  0  0
   -0.2711    1.2044    0.4733 C   0  0  0  0  0  0  0  0  0  0  0  0
   -1.5729   -0.7801    0.0402 N   0  0  0  0  0  0  0  0  0  0  0  0
   -2.6553   -0.3042   -0.6789 C   0  0  0  0  0  0  0  0  0  0  0  0
   -3.7778   -1.1212   -1.2033 C   0  0  0  0  0  0  0  0  0  0  0  0
   -2.7957    0.9114   -0.9671 O   0  0  0  0  0  0  0  0  0  0  0  0
    3.7116   -0.6459    2.4118 H   0  0  0  0  0  0  0  0  0  0  0  0
    2.4020   -0.9981    3.6692 H   0  0  0  0  0  0  0  0  0  0  0  0
    2.6614   -2.0852    2.2059 H   0  0  0  0  0  0  0  0  0  0  0  0
    1.9409    0.7885    1.8491 H   0  0  0  0  0  0  0  0  0  0  0  0
    0.5695    1.7396    0.8790 H   0  0  0  0  0  0  0  0  0  0  0  0
   -0.9800    1.8487   -0.0539 H   0  0  0  0  0  0  0  0  0  0  0  0
   -1.5764   -1.8407    0.2173 H   0  0  0  0  0  0  0  0  0  0  0  0
   -3.4106   -2.1586   -1.3722 H   0  0  0  0  0  0  0  0  0  0  0  0
   -4.5347   -1.1904   -0.3901 H   0  0  0  0  0  0  0  0  0  0  0  0
   -4.2095   -0.7710   -2.1275 H   0  0  0  0  0  0  0  0  0  0  0  0
  1  2  1  0
  1 11  1  0
  1 12  1  0
  1 13  1  0
  2  3  1  0
  2 14  1  0
  3  4  2  0
  3  5  1  0
  5  6  2  3
  5  7  1  0
  6 15  1  0
  6 16  1  0
  7  8  1  0
  7 17  1  0
  8  9  1  0
  8 10  2  0
  9 18  1  0
  9 19  1  0
  9 20  1  0
M  END

> <RosettaParamsInstructions>
M  ROOT 7
M  POLY_N_BB 7
M  POLY_CA_BB 5
M  POLY_C_BB 3
M  POLY_O_BB 4
M  POLY_IGNORE 1 10 9 14 11 12 13 18 19 20
M  POLY_UPPER 2
M  POLY_LOWER 8
M  POLY_CHG 0
M  POLY_PROPERTIES PROTEIN POLYMER ALPHA_AA ALIPHATIC
M  END

$$$$
DHA_new
     RDKit          3D

 20 19  0  0  0  0  0  0  0  0999 V2000
    2.6976   -1.0643    2.5647 C   0  0  0  0  0  0  0  0  0  0  0  0
    1.6938   -0.2676    1.8499 N   0  0  0  0  0  0  0  0  0  0  0  0
    0.5534   -0.8317    1.2816 C   0  0  0  0  0  0  0  0  0  0  0  0
    0.4045   -2.0743    1.4014 O   0  0  0  0  0  0  0  0  0  0  0  0
   -0.4462   -0.0590    0.5732 C   0  0  0  0  0  0  0  0  0  0  0  0
   -0.3352    1.2390    0.4222 C   0  0  0  0  0  0  0  0  0  0  0  0
   -1.5505   -0.7779    0.0515 N   0  0  0  0  0  0  0  0  0  0  0  0
   -2.6376   -0.2637   -0.6648 C   0  0  0  0  0  0  0  0  0  0  0  0
   -3.7485   -1.1484   -1.1628 C   0  0  0  0  0  0  0  0  0  0  0  0
   -2.7462    0.9434   -0.9281 O   0  0  0  0  0  0  0  0  0  0  0  0
    2.1200   -1.9053    3.0366 H   0  0  0  0  0  0  0  0  0  0  0  0
    3.0956   -0.4558    3.4026 H   0  0  0  0  0  0  0  0  0  0  0  0
    3.5076   -1.4001    1.9194 H   0  0  0  0  0  0  0  0  0  0  0  0
    1.8811    0.7420    1.7911 H   0  0  0  0  0  0  0  0  0  0  0  0
   -1.0177    1.9008   -0.0837 H   0  0  0  0  0  0  0  0  0  0  0  0
    0.5588    1.7228    0.8608 H   0  0  0  0  0  0  0  0  0  0  0  0
   -1.5772   -1.8410    0.2124 H   0  0  0  0  0  0  0  0  0  0  0  0
   -4.4365   -1.2959   -0.3018 H   0  0  0  0  0  0  0  0  0  0  0  0
   -3.3305   -2.1191   -1.4890 H   0  0  0  0  0  0  0  0  0  0  0  0
   -4.2926   -0.6962   -1.9962 H   0  0  0  0  0  0  0  0  0  0  0  0
  1  2  1  0
  1 11  1  0
  1 12  1  0
  1 13  1  0
  2  3  1  0
  2 14  1  0
  3  4  2  0
  3  5  1  0
  5  6  2  3
  5  7  1  0
  6 15  1  0
  6 16  1  0
  7  8  1  0
  7 17  1  0
  8  9  1  0
  8 10  2  0
  9 18  1  0
  9 19  1  0
  9 20  1  0
M  END

> <RosettaParamsInstructions>
M  ROOT 7
M  POLY_N_BB 7
M  POLY_CA_BB 5
M  POLY_C_BB 3
M  POLY_O_BB 4
M  POLY_IGNORE 1 10 9 14 11 12 13 18 19 20
M  POLY_UPPER 2
M  POLY_LOWER 8
M  POLY_CHG 0
M  POLY_PROPERTIES PROTEIN POLYMER ALPHA_AA ALIPHATIC
M  END

$$$$
DHA_new
     RDKit          3D

 20 19  0  0  0  0  0  0  0  0999 V2000
    2.6848   -1.0587    2.5696 C   0  0  0  0  0  0  0  0  0  0  0  0
    1.7228   -0.2275    1.8701 N   0  0  0  0  0  0  0  0  0  0  0  0
    0.5727   -0.7955    1.3037 C   0  0  0  0  0  0  0  0  0  0  0  0
    0.4084   -2.0512    1.4258 O   0  0  0  0  0  0  0  0  0  0  0  0
   -0.4671   -0.0382    0.5720 C   0  0  0  0  0  0  0  0  0  0  0  0
   -0.3476    1.2598    0.4167 C   0  0  0  0  0  0  0  0  0  0  0  0
   -1.5563   -0.7663    0.0685 N   0  0  0  0  0  0  0  0  0  0  0  0
   -2.6469   -0.2567   -0.6498 C   0  0  0  0  0  0  0  0  0  0  0  0
   -3.7563   -1.1681   -1.1333 C   0  0  0  0  0  0  0  0  0  0  0  0
   -2.7851    0.9449   -0.9373 O   0  0  0  0  0  0  0  0  0  0  0  0
    3.7154   -0.9236    2.2198 H   0  0  0  0  0  0  0  0  0  0  0  0
    2.5647   -0.8722    3.6558 H   0  0  0  0  0  0  0  0  0  0  0  0
    2.4356   -2.1397    2.4224 H   0  0  0  0  0  0  0  0  0  0  0  0
    1.9072    0.7804    1.8024 H   0  0  0  0  0  0  0  0  0  0  0  0
    0.5275    1.7604    0.8358 H   0  0  0  0  0  0  0  0  0  0  0  0
   -1.0426    1.8977   -0.0951 H   0  0  0  0  0  0  0  0  0  0  0  0
   -1.5694   -1.8295    0.2446 H   0  0  0  0  0  0  0  0  0  0  0  0
   -4.6260   -1.1080   -0.4566 H   0  0  0  0  0  0  0  0  0  0  0  0
   -3.3567   -2.2121   -1.2281 H   0  0  0  0  0  0  0  0  0  0  0  0
   -3.9917   -0.8481   -2.1663 H   0  0  0  0  0  0  0  0  0  0  0  0
  1  2  1  0
  1 11  1  0
  1 12  1  0
  1 13  1  0
  2  3  1  0
  2 14  1  0
  3  4  2  0
  3  5  1  0
  5  6  2  3
  5  7  1  0
  6 15  1  0
  6 16  1  0
  7  8  1  0
  7 17  1  0
  8  9  1  0
  8 10  2  0
  9 18  1  0
  9 19  1  0
  9 20  1  0
M  END

> <RosettaParamsInstructions>
M  ROOT 7
M  POLY_N_BB 7
M  POLY_CA_BB 5
M  POLY_C_BB 3
M  POLY_O_BB 4
M  POLY_IGNORE 1 10 9 14 11 12 13 18 19 20
M  POLY_UPPER 2
M  POLY_LOWER 8
M  POLY_CHG 0
M  POLY_PROPERTIES PROTEIN POLYMER ALPHA_AA ALIPHATIC
M  END

$$$$
DHA_new
     RDKit          3D

 20 19  0  0  0  0  0  0  0  0999 V2000
    2.6776   -1.0491    2.6062 C   0  0  0  0  0  0  0  0  0  0  0  0
    1.6822   -0.2320    1.8688 N   0  0  0  0  0  0  0  0  0  0  0  0
    0.5480   -0.8338    1.3126 C   0  0  0  0  0  0  0  0  0  0  0  0
    0.3630   -2.0895    1.4364 O   0  0  0  0  0  0  0  0  0  0  0  0
   -0.4688   -0.0642    0.5714 C   0  0  0  0  0  0  0  0  0  0  0  0
   -0.2954    1.2177    0.4360 C   0  0  0  0  0  0  0  0  0  0  0  0
   -1.5881   -0.7851    0.0460 N   0  0  0  0  0  0  0  0  0  0  0  0
   -2.6408   -0.2480   -0.6731 C   0  0  0  0  0  0  0  0  0  0  0  0
   -3.7458   -1.1664   -1.1535 C   0  0  0  0  0  0  0  0  0  0  0  0
   -2.7455    0.9469   -0.9562 O   0  0  0  0  0  0  0  0  0  0  0  0
    3.6782   -0.6745    2.2883 H   0  0  0  0  0  0  0  0  0  0  0  0
    2.5625   -2.0745    2.2087 H   0  0  0  0  0  0  0  0  0  0  0  0
    2.5052   -0.9783    3.6890 H   0  0  0  0  0  0  0  0  0  0  0  0
    1.8909    0.7585    1.8084 H   0  0  0  0  0  0  0  0  0  0  0  0
    0.5802    1.6929    0.8634 H   0  0  0  0  0  0  0  0  0  0  0  0
   -1.0079    1.8421   -0.0991 H   0  0  0  0  0  0  0  0  0  0  0  0
   -1.5834   -1.8289    0.2422 H   0  0  0  0  0  0  0  0  0  0  0  0
   -4.1523   -0.7478   -2.0829 H   0  0  0  0  0  0  0  0  0  0  0  0
   -4.5630   -1.1818   -0.3972 H   0  0  0  0  0  0  0  0  0  0  0  0
   -3.3033   -2.1563   -1.2746 H   0  0  0  0  0  0  0  0  0  0  0  0
  1  2  1  0
  1 11  1  0
  1 12  1  0
  1 13  1  0
  2  3  1  0
  2 14  1  0
  3  4  2  0
  3  5  1  0
  5  6  2  3
  5  7  1  0
  6 15  1  0
  6 16  1  0
  7  8  1  0
  7 17  1  0
  8  9  1  0
  8 10  2  0
  9 18  1  0
  9 19  1  0
  9 20  1  0
M  END

> <RosettaParamsInstructions>
M  ROOT 7
M  POLY_N_BB 7
M  POLY_CA_BB 5
M  POLY_C_BB 3
M  POLY_O_BB 4
M  POLY_IGNORE 1 10 9 14 11 12 13 18 19 20
M  POLY_UPPER 2
M  POLY_LOWER 8
M  POLY_CHG 0
M  POLY_PROPERTIES PROTEIN POLYMER ALPHA_AA ALIPHATIC
M  END

$$$$
DHA_new
     RDKit          3D

 20 19  0  0  0  0  0  0  0  0999 V2000
    2.6855   -1.0706    2.5782 C   0  0  0  0  0  0  0  0  0  0  0  0
    1.7149   -0.2265    1.8578 N   0  0  0  0  0  0  0  0  0  0  0  0
    0.5747   -0.8210    1.3090 C   0  0  0  0  0  0  0  0  0  0  0  0
    0.4212   -2.0785    1.4560 O   0  0  0  0  0  0  0  0  0  0  0  0
   -0.4778   -0.0899    0.5624 C   0  0  0  0  0  0  0  0  0  0  0  0
   -0.2863    1.2081    0.4298 C   0  0  0  0  0  0  0  0  0  0  0  0
   -1.5870   -0.8004    0.0534 N   0  0  0  0  0  0  0  0  0  0  0  0
   -2.6631   -0.2991   -0.6639 C   0  0  0  0  0  0  0  0  0  0  0  0
   -3.7896   -1.1667   -1.1535 C   0  0  0  0  0  0  0  0  0  0  0  0
   -2.7715    0.9039   -0.9523 O   0  0  0  0  0  0  0  0  0  0  0  0
    2.3647   -2.1246    2.5993 H   0  0  0  0  0  0  0  0  0  0  0  0
    2.8136   -0.6288    3.5890 H   0  0  0  0  0  0  0  0  0  0  0  0
    3.6476   -0.9636    2.0371 H   0  0  0  0  0  0  0  0  0  0  0  0
    1.9602    0.7687    1.8132 H   0  0  0  0  0  0  0  0  0  0  0  0
   -0.9847    1.8633   -0.0976 H   0  0  0  0  0  0  0  0  0  0  0  0
    0.5912    1.7255    0.8409 H   0  0  0  0  0  0  0  0  0  0  0  0
   -1.5984   -1.8511    0.2438 H   0  0  0  0  0  0  0  0  0  0  0  0
   -3.5668   -2.2327   -0.9992 H   0  0  0  0  0  0  0  0  0  0  0  0
   -4.6835   -0.8872   -0.5640 H   0  0  0  0  0  0  0  0  0  0  0  0
   -3.9715   -0.8808   -2.1986 H   0  0  0  0  0  0  0  0  0  0  0  0
  1  2  1  0
  1 11  1  0
  1 12  1  0
  1 13  1  0
  2  3  1  0
  2 14  1  0
  3  4  2  0
  3  5  1  0
  5  6  2  3
  5  7  1  0
  6 15  1  0
  6 16  1  0
  7  8  1  0
  7 17  1  0
  8  9  1  0
  8 10  2  0
  9 18  1  0
  9 19  1  0
  9 20  1  0
M  END

> <RosettaParamsInstructions>
M  ROOT 7
M  POLY_N_BB 7
M  POLY_CA_BB 5
M  POLY_C_BB 3
M  POLY_O_BB 4
M  POLY_IGNORE 1 10 9 14 11 12 13 18 19 20
M  POLY_UPPER 2
M  POLY_LOWER 8
M  POLY_CHG 0
M  POLY_PROPERTIES PROTEIN POLYMER ALPHA_AA ALIPHATIC
M  END

$$$$
DHA_new
     RDKit          3D

 20 19  0  0  0  0  0  0  0  0999 V2000
    2.6683   -1.0377    2.5863 C   0  0  0  0  0  0  0  0  0  0  0  0
    1.6824   -0.2256    1.8562 N   0  0  0  0  0  0  0  0  0  0  0  0
    0.5661   -0.8376    1.3178 C   0  0  0  0  0  0  0  0  0  0  0  0
    0.3847   -2.0944    1.4480 O   0  0  0  0  0  0  0  0  0  0  0  0
   -0.4624   -0.0839    0.5738 C   0  0  0  0  0  0  0  0  0  0  0  0
   -0.2920    1.2072    0.4307 C   0  0  0  0  0  0  0  0  0  0  0  0
   -1.5863   -0.7949    0.0496 N   0  0  0  0  0  0  0  0  0  0  0  0
   -2.6370   -0.2474   -0.6686 C   0  0  0  0  0  0  0  0  0  0  0  0
   -3.7588   -1.1378   -1.1578 C   0  0  0  0  0  0  0  0  0  0  0  0
   -2.7235    0.9533   -0.9451 O   0  0  0  0  0  0  0  0  0  0  0  0
    3.5381   -1.2038    1.9272 H   0  0  0  0  0  0  0  0  0  0  0  0
    2.9111   -0.4953    3.5193 H   0  0  0  0  0  0  0  0  0  0  0  0
    2.2156   -2.0239    2.8485 H   0  0  0  0  0  0  0  0  0  0  0  0
    1.8964    0.7674    1.7947 H   0  0  0  0  0  0  0  0  0  0  0  0
    0.5792    1.7181    0.8447 H   0  0  0  0  0  0  0  0  0  0  0  0
   -0.9602    1.8795   -0.0869 H   0  0  0  0  0  0  0  0  0  0  0  0
   -1.6023   -1.8528    0.2392 H   0  0  0  0  0  0  0  0  0  0  0  0
   -3.3094   -2.1089   -1.4735 H   0  0  0  0  0  0  0  0  0  0  0  0
   -4.4682   -1.3457   -0.3418 H   0  0  0  0  0  0  0  0  0  0  0  0
   -4.2483   -0.6882   -2.0215 H   0  0  0  0  0  0  0  0  0  0  0  0
  1  2  1  0
  1 11  1  0
  1 12  1  0
  1 13  1  0
  2  3  1  0
  2 14  1  0
  3  4  2  0
  3  5  1  0
  5  6  2  3
  5  7  1  0
  6 15  1  0
  6 16  1  0
  7  8  1  0
  7 17  1  0
  8  9  1  0
  8 10  2  0
  9 18  1  0
  9 19  1  0
  9 20  1  0
M  END

> <RosettaParamsInstructions>
M  ROOT 7
M  POLY_N_BB 7
M  POLY_CA_BB 5
M  POLY_C_BB 3
M  POLY_O_BB 4
M  POLY_IGNORE 1 10 9 14 11 12 13 18 19 20
M  POLY_UPPER 2
M  POLY_LOWER 8
M  POLY_CHG 0
M  POLY_PROPERTIES PROTEIN POLYMER ALPHA_AA ALIPHATIC
M  END

$$$$
DHA_new
     RDKit          3D

 20 19  0  0  0  0  0  0  0  0999 V2000
    2.7318   -1.0483    2.5019 C   0  0  0  0  0  0  0  0  0  0  0  0
    1.6848   -0.2576    1.8481 N   0  0  0  0  0  0  0  0  0  0  0  0
    0.5704   -0.8347    1.2582 C   0  0  0  0  0  0  0  0  0  0  0  0
    0.4632   -2.1003    1.2919 O   0  0  0  0  0  0  0  0  0  0  0  0
   -0.4890   -0.0787    0.6000 C   0  0  0  0  0  0  0  0  0  0  0  0
   -0.4036    1.2241    0.5512 C   0  0  0  0  0  0  0  0  0  0  0  0
   -1.5729   -0.7984    0.0381 N   0  0  0  0  0  0  0  0  0  0  0  0
   -2.6647   -0.2485   -0.6232 C   0  0  0  0  0  0  0  0  0  0  0  0
   -3.7418   -1.1559   -1.1673 C   0  0  0  0  0  0  0  0  0  0  0  0
   -2.8245    0.9605   -0.8042 O   0  0  0  0  0  0  0  0  0  0  0  0
    2.8123   -0.7102    3.5567 H   0  0  0  0  0  0  0  0  0  0  0  0
    2.3975   -2.0894    2.4995 H   0  0  0  0  0  0  0  0  0  0  0  0
    3.6941   -0.9729    1.9960 H   0  0  0  0  0  0  0  0  0  0  0  0
    1.8610    0.7661    1.8717 H   0  0  0  0  0  0  0  0  0  0  0  0
    0.4549    1.7307    1.0010 H   0  0  0  0  0  0  0  0  0  0  0  0
   -1.1071    1.8976    0.1013 H   0  0  0  0  0  0  0  0  0  0  0  0
   -1.5395   -1.8727    0.1373 H   0  0  0  0  0  0  0  0  0  0  0  0
   -4.6207   -1.0686   -0.5043 H   0  0  0  0  0  0  0  0  0  0  0  0
   -3.9507   -0.8077   -2.1851 H   0  0  0  0  0  0  0  0  0  0  0  0
   -3.3619   -2.1875   -1.2280 H   0  0  0  0  0  0  0  0  0  0  0  0
  1  2  1  0
  1 11  1  0
  1 12  1  0
  1 13  1  0
  2  3  1  0
  2 14  1  0
  3  4  2  0
  3  5  1  0
  5  6  2  3
  5  7  1  0
  6 15  1  0
  6 16  1  0
  7  8  1  0
  7 17  1  0
  8  9  1  0
  8 10  2  0
  9 18  1  0
  9 19  1  0
  9 20  1  0
M  END

> <RosettaParamsInstructions>
M  ROOT 7
M  POLY_N_BB 7
M  POLY_CA_BB 5
M  POLY_C_BB 3
M  POLY_O_BB 4
M  POLY_IGNORE 1 10 9 14 11 12 13 18 19 20
M  POLY_UPPER 2
M  POLY_LOWER 8
M  POLY_CHG 0
M  POLY_PROPERTIES PROTEIN POLYMER ALPHA_AA ALIPHATIC
M  END

$$$$
DHA_new
     RDKit          3D

 20 19  0  0  0  0  0  0  0  0999 V2000
    2.6702   -1.0669    2.5960 C   0  0  0  0  0  0  0  0  0  0  0  0
    1.7000   -0.2475    1.8667 N   0  0  0  0  0  0  0  0  0  0  0  0
    0.5409   -0.8014    1.2958 C   0  0  0  0  0  0  0  0  0  0  0  0
    0.3720   -2.0509    1.4415 O   0  0  0  0  0  0  0  0  0  0  0  0
   -0.4737   -0.0665    0.5570 C   0  0  0  0  0  0  0  0  0  0  0  0
   -0.3162    1.2345    0.3944 C   0  0  0  0  0  0  0  0  0  0  0  0
   -1.5744   -0.7652    0.0486 N   0  0  0  0  0  0  0  0  0  0  0  0
   -2.6315   -0.2276   -0.6763 C   0  0  0  0  0  0  0  0  0  0  0  0
   -3.7240   -1.1832   -1.1296 C   0  0  0  0  0  0  0  0  0  0  0  0
   -2.7807    0.9756   -0.9995 O   0  0  0  0  0  0  0  0  0  0  0  0
    2.2050   -2.0505    2.7877 H   0  0  0  0  0  0  0  0  0  0  0  0
    2.9565   -0.5598    3.5384 H   0  0  0  0  0  0  0  0  0  0  0  0
    3.5436   -1.2543    1.9406 H   0  0  0  0  0  0  0  0  0  0  0  0
    1.8997    0.7509    1.7883 H   0  0  0  0  0  0  0  0  0  0  0  0
   -0.9870    1.8859   -0.1264 H   0  0  0  0  0  0  0  0  0  0  0  0
    0.5613    1.7558    0.8067 H   0  0  0  0  0  0  0  0  0  0  0  0
   -1.5902   -1.8175    0.2455 H   0  0  0  0  0  0  0  0  0  0  0  0
   -3.7482   -2.0761   -0.4824 H   0  0  0  0  0  0  0  0  0  0  0  0
   -3.5590   -1.4494   -2.1775 H   0  0  0  0  0  0  0  0  0  0  0  0
   -4.6709   -0.6383   -0.9746 H   0  0  0  0  0  0  0  0  0  0  0  0
  1  2  1  0
  1 11  1  0
  1 12  1  0
  1 13  1  0
  2  3  1  0
  2 14  1  0
  3  4  2  0
  3  5  1  0
  5  6  2  3
  5  7  1  0
  6 15  1  0
  6 16  1  0
  7  8  1  0
  7 17  1  0
  8  9  1  0
  8 10  2  0
  9 18  1  0
  9 19  1  0
  9 20  1  0
M  END

> <RosettaParamsInstructions>
M  ROOT 7
M  POLY_N_BB 7
M  POLY_CA_BB 5
M  POLY_C_BB 3
M  POLY_O_BB 4
M  POLY_IGNORE 1 10 9 14 11 12 13 18 19 20
M  POLY_UPPER 2
M  POLY_LOWER 8
M  POLY_CHG 0
M  POLY_PROPERTIES PROTEIN POLYMER ALPHA_AA ALIPHATIC
M  END

$$$$
DHA_new
     RDKit          3D

 20 19  0  0  0  0  0  0  0  0999 V2000
    2.6705   -1.0553    2.5576 C   0  0  0  0  0  0  0  0  0  0  0  0
    1.6867   -0.2396    1.8524 N   0  0  0  0  0  0  0  0  0  0  0  0
    0.5621   -0.8607    1.2966 C   0  0  0  0  0  0  0  0  0  0  0  0
    0.3980   -2.1189    1.4036 O   0  0  0  0  0  0  0  0  0  0  0  0
   -0.4458   -0.0661    0.5808 C   0  0  0  0  0  0  0  0  0  0  0  0
   -0.3081    1.2253    0.4531 C   0  0  0  0  0  0  0  0  0  0  0  0
   -1.5489   -0.7646    0.0500 N   0  0  0  0  0  0  0  0  0  0  0  0
   -2.6388   -0.2753   -0.6645 C   0  0  0  0  0  0  0  0  0  0  0  0
   -3.7379   -1.1743   -1.1607 C   0  0  0  0  0  0  0  0  0  0  0  0
   -2.8031    0.9304   -0.9545 O   0  0  0  0  0  0  0  0  0  0  0  0
    2.9158   -0.5382    3.5225 H   0  0  0  0  0  0  0  0  0  0  0  0
    2.2103   -2.0247    2.8364 H   0  0  0  0  0  0  0  0  0  0  0  0
    3.6093   -1.1682    1.9791 H   0  0  0  0  0  0  0  0  0  0  0  0
    1.8609    0.7607    1.7928 H   0  0  0  0  0  0  0  0  0  0  0  0
    0.5462    1.7685    0.8638 H   0  0  0  0  0  0  0  0  0  0  0  0
   -1.0263    1.8216   -0.0618 H   0  0  0  0  0  0  0  0  0  0  0  0
   -1.5429   -1.8311    0.2253 H   0  0  0  0  0  0  0  0  0  0  0  0
   -3.6804   -1.1312   -2.2715 H   0  0  0  0  0  0  0  0  0  0  0  0
   -4.6844   -0.7229   -0.7959 H   0  0  0  0  0  0  0  0  0  0  0  0
   -3.6499   -2.1876   -0.7640 H   0  0  0  0  0  0  0  0  0  0  0  0
  1  2  1  0
  1 11  1  0
  1 12  1  0
  1 13  1  0
  2  3  1  0
  2 14  1  0
  3  4  2  0
  3  5  1  0
  5  6  2  3
  5  7  1  0
  6 15  1  0
  6 16  1  0
  7  8  1  0
  7 17  1  0
  8  9  1  0
  8 10  2  0
  9 18  1  0
  9 19  1  0
  9 20  1  0
M  END

> <RosettaParamsInstructions>
M  ROOT 7
M  POLY_N_BB 7
M  POLY_CA_BB 5
M  POLY_C_BB 3
M  POLY_O_BB 4
M  POLY_IGNORE 1 10 9 14 11 12 13 18 19 20
M  POLY_UPPER 2
M  POLY_LOWER 8
M  POLY_CHG 0
M  POLY_PROPERTIES PROTEIN POLYMER ALPHA_AA ALIPHATIC
M  END

$$$$
DHA_new
     RDKit          3D

 20 19  0  0  0  0  0  0  0  0999 V2000
    2.6991   -1.0394    2.5725 C   0  0  0  0  0  0  0  0  0  0  0  0
    1.6903   -0.2584    1.8593 N   0  0  0  0  0  0  0  0  0  0  0  0
    0.5782   -0.8683    1.3086 C   0  0  0  0  0  0  0  0  0  0  0  0
    0.3973   -2.1236    1.4042 O   0  0  0  0  0  0  0  0  0  0  0  0
   -0.4518   -0.0942    0.5843 C   0  0  0  0  0  0  0  0  0  0  0  0
   -0.2962    1.1927    0.4689 C   0  0  0  0  0  0  0  0  0  0  0  0
   -1.5724   -0.7701    0.0392 N   0  0  0  0  0  0  0  0  0  0  0  0
   -2.6497   -0.2624   -0.6701 C   0  0  0  0  0  0  0  0  0  0  0  0
   -3.7549   -1.1510   -1.1721 C   0  0  0  0  0  0  0  0  0  0  0  0
   -2.7861    0.9409   -0.9423 O   0  0  0  0  0  0  0  0  0  0  0  0
    2.4172   -2.1074    2.6528 H   0  0  0  0  0  0  0  0  0  0  0  0
    3.6800   -0.9117    2.1111 H   0  0  0  0  0  0  0  0  0  0  0  0
    2.7798   -0.6653    3.6211 H   0  0  0  0  0  0  0  0  0  0  0  0
    1.8725    0.7516    1.8038 H   0  0  0  0  0  0  0  0  0  0  0  0
   -1.0063    1.8462   -0.0496 H   0  0  0  0  0  0  0  0  0  0  0  0
    0.5450    1.7632    0.8680 H   0  0  0  0  0  0  0  0  0  0  0  0
   -1.5922   -1.8399    0.1990 H   0  0  0  0  0  0  0  0  0  0  0  0
   -3.4616   -2.2046   -1.1899 H   0  0  0  0  0  0  0  0  0  0  0  0
   -4.0582   -0.8235   -2.1952 H   0  0  0  0  0  0  0  0  0  0  0  0
   -4.6365   -1.0269   -0.5327 H   0  0  0  0  0  0  0  0  0  0  0  0
  1  2  1  0
  1 11  1  0
  1 12  1  0
  1 13  1  0
  2  3  1  0
  2 14  1  0
  3  4  2  0
  3  5  1  0
  5  6  2  3
  5  7  1  0
  6 15  1  0
  6 16  1  0
  7  8  1  0
  7 17  1  0
  8  9  1  0
  8 10  2  0
  9 18  1  0
  9 19  1  0
  9 20  1  0
M  END

> <RosettaParamsInstructions>
M  ROOT 7
M  POLY_N_BB 7
M  POLY_CA_BB 5
M  POLY_C_BB 3
M  POLY_O_BB 4
M  POLY_IGNORE 1 10 9 14 11 12 13 18 19 20
M  POLY_UPPER 2
M  POLY_LOWER 8
M  POLY_CHG 0
M  POLY_PROPERTIES PROTEIN POLYMER ALPHA_AA ALIPHATIC
M  END

$$$$
DHA_new
     RDKit          3D

 20 19  0  0  0  0  0  0  0  0999 V2000
    2.7008   -1.0927    2.4808 C   0  0  0  0  0  0  0  0  0  0  0  0
    1.7031   -0.2263    1.8533 N   0  0  0  0  0  0  0  0  0  0  0  0
    0.5783   -0.8105    1.2542 C   0  0  0  0  0  0  0  0  0  0  0  0
    0.4749   -2.0759    1.2832 O   0  0  0  0  0  0  0  0  0  0  0  0
   -0.4692   -0.0322    0.6044 C   0  0  0  0  0  0  0  0  0  0  0  0
   -0.3447    1.2797    0.5842 C   0  0  0  0  0  0  0  0  0  0  0  0
   -1.5573   -0.7237    0.0336 N   0  0  0  0  0  0  0  0  0  0  0  0
   -2.6730   -0.2354   -0.6348 C   0  0  0  0  0  0  0  0  0  0  0  0
   -3.7278   -1.1663   -1.1701 C   0  0  0  0  0  0  0  0  0  0  0  0
   -2.8710    0.9701   -0.8311 O   0  0  0  0  0  0  0  0  0  0  0  0
    3.3011   -0.4898    3.1695 H   0  0  0  0  0  0  0  0  0  0  0  0
    2.1664   -1.8514    3.0662 H   0  0  0  0  0  0  0  0  0  0  0  0
    3.3454   -1.5870    1.7548 H   0  0  0  0  0  0  0  0  0  0  0  0
    1.8445    0.8066    1.8621 H   0  0  0  0  0  0  0  0  0  0  0  0
    0.4757    1.8423    1.0117 H   0  0  0  0  0  0  0  0  0  0  0  0
   -1.1063    1.8679    0.1103 H   0  0  0  0  0  0  0  0  0  0  0  0
   -1.5102   -1.7992    0.1351 H   0  0  0  0  0  0  0  0  0  0  0  0
   -3.8764   -2.0237   -0.4498 H   0  0  0  0  0  0  0  0  0  0  0  0
   -4.6904   -0.6647   -1.2728 H   0  0  0  0  0  0  0  0  0  0  0  0
   -3.3705   -1.6399   -2.1039 H   0  0  0  0  0  0  0  0  0  0  0  0
  1  2  1  0
  1 11  1  0
  1 12  1  0
  1 13  1  0
  2  3  1  0
  2 14  1  0
  3  4  2  0
  3  5  1  0
  5  6  2  3
  5  7  1  0
  6 15  1  0
  6 16  1  0
  7  8  1  0
  7 17  1  0
  8  9  1  0
  8 10  2  0
  9 18  1  0
  9 19  1  0
  9 20  1  0
M  END

> <RosettaParamsInstructions>
M  ROOT 7
M  POLY_N_BB 7
M  POLY_CA_BB 5
M  POLY_C_BB 3
M  POLY_O_BB 4
M  POLY_IGNORE 1 10 9 14 11 12 13 18 19 20
M  POLY_UPPER 2
M  POLY_LOWER 8
M  POLY_CHG 0
M  POLY_PROPERTIES PROTEIN POLYMER ALPHA_AA ALIPHATIC
M  END

$$$$
DHA_new
     RDKit          3D

 20 19  0  0  0  0  0  0  0  0999 V2000
    2.4769   -1.2471    2.4140 C   0  0  0  0  0  0  0  0  0  0  0  0
    1.5698   -0.2288    1.8680 N   0  0  0  0  0  0  0  0  0  0  0  0
    0.3903   -0.6589    1.1611 C   0  0  0  0  0  0  0  0  0  0  0  0
    0.2263   -1.9006    1.0649 O   0  0  0  0  0  0  0  0  0  0  0  0
   -0.5230    0.3059    0.6115 C   0  0  0  0  0  0  0  0  0  0  0  0
   -0.2742    1.6202    0.7585 C   0  0  0  0  0  0  0  0  0  0  0  0
   -1.6909   -0.0425   -0.0886 N   0  0  0  0  0  0  0  0  0  0  0  0
   -2.2410   -1.2816   -0.4164 C   0  0  0  0  0  0  0  0  0  0  0  0
   -3.5417   -1.3298   -1.1967 C   0  0  0  0  0  0  0  0  0  0  0  0
   -1.7800   -2.3896   -0.1379 O   0  0  0  0  0  0  0  0  0  0  0  0
    2.5438   -1.1706    3.5189 H   0  0  0  0  0  0  0  0  0  0  0  0
    3.4871   -1.0684    1.9590 H   0  0  0  0  0  0  0  0  0  0  0  0
    2.1235   -2.2384    2.1170 H   0  0  0  0  0  0  0  0  0  0  0  0
    1.8272    0.7397    2.0208 H   0  0  0  0  0  0  0  0  0  0  0  0
    0.5806    1.9788    1.2707 H   0  0  0  0  0  0  0  0  0  0  0  0
   -0.9425    2.3789    0.3562 H   0  0  0  0  0  0  0  0  0  0  0  0
   -2.2756    0.8010   -0.4408 H   0  0  0  0  0  0  0  0  0  0  0  0
   -4.1133   -0.4153   -0.8791 H   0  0  0  0  0  0  0  0  0  0  0  0
   -3.3277   -1.2846   -2.2669 H   0  0  0  0  0  0  0  0  0  0  0  0
   -4.1222   -2.2204   -0.9533 H   0  0  0  0  0  0  0  0  0  0  0  0
  1  2  1  0
  1 11  1  0
  1 12  1  0
  1 13  1  0
  2  3  1  0
  2 14  1  0
  3  4  2  0
  3  5  1  0
  5  6  2  3
  5  7  1  0
  6 15  1  0
  6 16  1  0
  7  8  1  0
  7 17  1  0
  8  9  1  0
  8 10  2  0
  9 18  1  0
  9 19  1  0
  9 20  1  0
M  END

> <RosettaParamsInstructions>
M  ROOT 7
M  POLY_N_BB 7
M  POLY_CA_BB 5
M  POLY_C_BB 3
M  POLY_O_BB 4
M  POLY_IGNORE 1 10 9 14 11 12 13 18 19 20
M  POLY_UPPER 2
M  POLY_LOWER 8
M  POLY_CHG 0
M  POLY_PROPERTIES PROTEIN POLYMER ALPHA_AA ALIPHATIC
M  END

$$$$
DHA_new
     RDKit          3D

 20 19  0  0  0  0  0  0  0  0999 V2000
    2.6500   -1.0517    2.5845 C   0  0  0  0  0  0  0  0  0  0  0  0
    1.6678   -0.2425    1.8664 N   0  0  0  0  0  0  0  0  0  0  0  0
    0.5383   -0.8116    1.2980 C   0  0  0  0  0  0  0  0  0  0  0  0
    0.3918   -2.0725    1.4281 O   0  0  0  0  0  0  0  0  0  0  0  0
   -0.4766   -0.0289    0.5651 C   0  0  0  0  0  0  0  0  0  0  0  0
   -0.3148    1.2564    0.4398 C   0  0  0  0  0  0  0  0  0  0  0  0
   -1.5824   -0.7582    0.0382 N   0  0  0  0  0  0  0  0  0  0  0  0
   -2.6439   -0.2288   -0.6787 C   0  0  0  0  0  0  0  0  0  0  0  0
   -3.7158   -1.1780   -1.1480 C   0  0  0  0  0  0  0  0  0  0  0  0
   -2.7645    0.9684   -0.9555 O   0  0  0  0  0  0  0  0  0  0  0  0
    2.2350   -1.4358    3.5219 H   0  0  0  0  0  0  0  0  0  0  0  0
    2.9098   -1.9403    1.9580 H   0  0  0  0  0  0  0  0  0  0  0  0
    3.5982   -0.5063    2.7589 H   0  0  0  0  0  0  0  0  0  0  0  0
    1.8713    0.7652    1.8135 H   0  0  0  0  0  0  0  0  0  0  0  0
   -1.0070    1.8924   -0.0776 H   0  0  0  0  0  0  0  0  0  0  0  0
    0.5430    1.7469    0.8614 H   0  0  0  0  0  0  0  0  0  0  0  0
   -1.5678   -1.8065    0.2268 H   0  0  0  0  0  0  0  0  0  0  0  0
   -3.4129   -2.2275   -1.0252 H   0  0  0  0  0  0  0  0  0  0  0  0
   -3.9176   -0.9877   -2.2203 H   0  0  0  0  0  0  0  0  0  0  0  0
   -4.6083   -1.0051   -0.5144 H   0  0  0  0  0  0  0  0  0  0  0  0
  1  2  1  0
  1 11  1  0
  1 12  1  0
  1 13  1  0
  2  3  1  0
  2 14  1  0
  3  4  2  0
  3  5  1  0
  5  6  2  3
  5  7  1  0
  6 15  1  0
  6 16  1  0
  7  8  1  0
  7 17  1  0
  8  9  1  0
  8 10  2  0
  9 18  1  0
  9 19  1  0
  9 20  1  0
M  END

> <RosettaParamsInstructions>
M  ROOT 7
M  POLY_N_BB 7
M  POLY_CA_BB 5
M  POLY_C_BB 3
M  POLY_O_BB 4
M  POLY_IGNORE 1 10 9 14 11 12 13 18 19 20
M  POLY_UPPER 2
M  POLY_LOWER 8
M  POLY_CHG 0
M  POLY_PROPERTIES PROTEIN POLYMER ALPHA_AA ALIPHATIC
M  END

$$$$
DHA_new
     RDKit          3D

 20 19  0  0  0  0  0  0  0  0999 V2000
    2.6717   -1.0845    2.5664 C   0  0  0  0  0  0  0  0  0  0  0  0
    1.6697   -0.2422    1.9164 N   0  0  0  0  0  0  0  0  0  0  0  0
    0.5570   -0.7999    1.2714 C   0  0  0  0  0  0  0  0  0  0  0  0
    0.4600   -2.0611    1.2775 O   0  0  0  0  0  0  0  0  0  0  0  0
   -0.5013   -0.0261    0.5908 C   0  0  0  0  0  0  0  0  0  0  0  0
   -0.3817    1.2861    0.5957 C   0  0  0  0  0  0  0  0  0  0  0  0
   -1.5512   -0.7480   -0.0078 N   0  0  0  0  0  0  0  0  0  0  0  0
   -2.6516   -0.2448   -0.7001 C   0  0  0  0  0  0  0  0  0  0  0  0
   -3.6700   -1.2036   -1.2674 C   0  0  0  0  0  0  0  0  0  0  0  0
   -2.8446    0.9622   -0.8790 O   0  0  0  0  0  0  0  0  0  0  0  0
    2.7533   -0.8140    3.6517 H   0  0  0  0  0  0  0  0  0  0  0  0
    3.6699   -0.9148    2.1001 H   0  0  0  0  0  0  0  0  0  0  0  0
    2.3506   -2.1243    2.4877 H   0  0  0  0  0  0  0  0  0  0  0  0
    1.8393    0.7640    1.9673 H   0  0  0  0  0  0  0  0  0  0  0  0
    0.4453    1.7771    1.0711 H   0  0  0  0  0  0  0  0  0  0  0  0
   -1.1239    1.8989    0.1148 H   0  0  0  0  0  0  0  0  0  0  0  0
   -1.5019   -1.8111    0.0768 H   0  0  0  0  0  0  0  0  0  0  0  0
   -3.5666   -1.2826   -2.3493 H   0  0  0  0  0  0  0  0  0  0  0  0
   -4.6550   -0.7907   -0.9529 H   0  0  0  0  0  0  0  0  0  0  0  0
   -3.5754   -2.1926   -0.7903 H   0  0  0  0  0  0  0  0  0  0  0  0
  1  2  1  0
  1 11  1  0
  1 12  1  0
  1 13  1  0
  2  3  1  0
  2 14  1  0
  3  4  2  0
  3  5  1  0
  5  6  2  3
  5  7  1  0
  6 15  1  0
  6 16  1  0
  7  8  1  0
  7 17  1  0
  8  9  1  0
  8 10  2  0
  9 18  1  0
  9 19  1  0
  9 20  1  0
M  END

> <RosettaParamsInstructions>
M  ROOT 7
M  POLY_N_BB 7
M  POLY_CA_BB 5
M  POLY_C_BB 3
M  POLY_O_BB 4
M  POLY_IGNORE 1 10 9 14 11 12 13 18 19 20
M  POLY_UPPER 2
M  POLY_LOWER 8
M  POLY_CHG 0
M  POLY_PROPERTIES PROTEIN POLYMER ALPHA_AA ALIPHATIC
M  END

$$$$
DHA_new
     RDKit          3D

 20 19  0  0  0  0  0  0  0  0999 V2000
    2.6491   -1.0577    2.5747 C   0  0  0  0  0  0  0  0  0  0  0  0
    1.7026   -0.2264    1.8219 N   0  0  0  0  0  0  0  0  0  0  0  0
    0.5556   -0.8226    1.3185 C   0  0  0  0  0  0  0  0  0  0  0  0
    0.3443   -2.0523    1.5113 O   0  0  0  0  0  0  0  0  0  0  0  0
   -0.4670   -0.0837    0.5458 C   0  0  0  0  0  0  0  0  0  0  0  0
   -0.2904    1.1981    0.3199 C   0  0  0  0  0  0  0  0  0  0  0  0
   -1.6051   -0.7899    0.0756 N   0  0  0  0  0  0  0  0  0  0  0  0
   -2.6338   -0.2228   -0.6567 C   0  0  0  0  0  0  0  0  0  0  0  0
   -3.7713   -1.1482   -1.0707 C   0  0  0  0  0  0  0  0  0  0  0  0
   -2.6855    0.9636   -0.9888 O   0  0  0  0  0  0  0  0  0  0  0  0
    3.4702   -1.2916    1.8907 H   0  0  0  0  0  0  0  0  0  0  0  0
    2.1415   -1.9726    2.9472 H   0  0  0  0  0  0  0  0  0  0  0  0
    3.0613   -0.5277    3.4363 H   0  0  0  0  0  0  0  0  0  0  0  0
    1.9324    0.7691    1.6994 H   0  0  0  0  0  0  0  0  0  0  0  0
   -0.9331    1.8612   -0.2164 H   0  0  0  0  0  0  0  0  0  0  0  0
    0.6152    1.6881    0.7124 H   0  0  0  0  0  0  0  0  0  0  0  0
   -1.6414   -1.8283    0.3196 H   0  0  0  0  0  0  0  0  0  0  0  0
   -3.3422   -2.1468   -1.3474 H   0  0  0  0  0  0  0  0  0  0  0  0
   -4.2631   -0.7047   -1.9408 H   0  0  0  0  0  0  0  0  0  0  0  0
   -4.4456   -1.2570   -0.2116 H   0  0  0  0  0  0  0  0  0  0  0  0
  1  2  1  0
  1 11  1  0
  1 12  1  0
  1 13  1  0
  2  3  1  0
  2 14  1  0
  3  4  2  0
  3  5  1  0
  5  6  2  3
  5  7  1  0
  6 15  1  0
  6 16  1  0
  7  8  1  0
  7 17  1  0
  8  9  1  0
  8 10  2  0
  9 18  1  0
  9 19  1  0
  9 20  1  0
M  END

> <RosettaParamsInstructions>
M  ROOT 7
M  POLY_N_BB 7
M  POLY_CA_BB 5
M  POLY_C_BB 3
M  POLY_O_BB 4
M  POLY_IGNORE 1 10 9 14 11 12 13 18 19 20
M  POLY_UPPER 2
M  POLY_LOWER 8
M  POLY_CHG 0
M  POLY_PROPERTIES PROTEIN POLYMER ALPHA_AA ALIPHATIC
M  END

$$$$
DHA_new
     RDKit          3D

 20 19  0  0  0  0  0  0  0  0999 V2000
    2.6046   -1.0667    2.6466 C   0  0  0  0  0  0  0  0  0  0  0  0
    1.6837   -0.2079    1.9147 N   0  0  0  0  0  0  0  0  0  0  0  0
    0.5516   -0.7923    1.3306 C   0  0  0  0  0  0  0  0  0  0  0  0
    0.3743   -2.0381    1.4613 O   0  0  0  0  0  0  0  0  0  0  0  0
   -0.4705   -0.0523    0.5594 C   0  0  0  0  0  0  0  0  0  0  0  0
   -0.2924    1.2291    0.4224 C   0  0  0  0  0  0  0  0  0  0  0  0
   -1.5566   -0.7544    0.0263 N   0  0  0  0  0  0  0  0  0  0  0  0
   -2.6194   -0.2422   -0.7261 C   0  0  0  0  0  0  0  0  0  0  0  0
   -3.6937   -1.1957   -1.2035 C   0  0  0  0  0  0  0  0  0  0  0  0
   -2.7805    0.9726   -1.0590 O   0  0  0  0  0  0  0  0  0  0  0  0
    3.3443   -0.4836    3.1918 H   0  0  0  0  0  0  0  0  0  0  0  0
    3.1456   -1.7089    1.9199 H   0  0  0  0  0  0  0  0  0  0  0  0
    2.0077   -1.6657    3.3586 H   0  0  0  0  0  0  0  0  0  0  0  0
    1.9035    0.8001    1.8560 H   0  0  0  0  0  0  0  0  0  0  0  0
    0.5668    1.7786    0.8453 H   0  0  0  0  0  0  0  0  0  0  0  0
   -0.9925    1.8355   -0.1250 H   0  0  0  0  0  0  0  0  0  0  0  0
   -1.5879   -1.8049    0.2092 H   0  0  0  0  0  0  0  0  0  0  0  0
   -3.3256   -1.6515   -2.1390 H   0  0  0  0  0  0  0  0  0  0  0  0
   -3.8262   -1.9557   -0.4020 H   0  0  0  0  0  0  0  0  0  0  0  0
   -4.6433   -0.6483   -1.3464 H   0  0  0  0  0  0  0  0  0  0  0  0
  1  2  1  0
  1 11  1  0
  1 12  1  0
  1 13  1  0
  2  3  1  0
  2 14  1  0
  3  4  2  0
  3  5  1  0
  5  6  2  3
  5  7  1  0
  6 15  1  0
  6 16  1  0
  7  8  1  0
  7 17  1  0
  8  9  1  0
  8 10  2  0
  9 18  1  0
  9 19  1  0
  9 20  1  0
M  END

> <RosettaParamsInstructions>
M  ROOT 7
M  POLY_N_BB 7
M  POLY_CA_BB 5
M  POLY_C_BB 3
M  POLY_O_BB 4
M  POLY_IGNORE 1 10 9 14 11 12 13 18 19 20
M  POLY_UPPER 2
M  POLY_LOWER 8
M  POLY_CHG 0
M  POLY_PROPERTIES PROTEIN POLYMER ALPHA_AA ALIPHATIC
M  END

$$$$
DHA_new
     RDKit          3D

 20 19  0  0  0  0  0  0  0  0999 V2000
    2.7105   -1.0947    2.5187 C   0  0  0  0  0  0  0  0  0  0  0  0
    1.7053   -0.2285    1.8744 N   0  0  0  0  0  0  0  0  0  0  0  0
    0.5886   -0.8085    1.2737 C   0  0  0  0  0  0  0  0  0  0  0  0
    0.4727   -2.0821    1.3018 O   0  0  0  0  0  0  0  0  0  0  0  0
   -0.4791   -0.0473    0.6012 C   0  0  0  0  0  0  0  0  0  0  0  0
   -0.4025    1.2569    0.5482 C   0  0  0  0  0  0  0  0  0  0  0  0
   -1.5514   -0.7346    0.0340 N   0  0  0  0  0  0  0  0  0  0  0  0
   -2.6644   -0.2276   -0.6455 C   0  0  0  0  0  0  0  0  0  0  0  0
   -3.7022   -1.1994   -1.1716 C   0  0  0  0  0  0  0  0  0  0  0  0
   -2.8728    0.9803   -0.8557 O   0  0  0  0  0  0  0  0  0  0  0  0
    3.6619   -0.5635    2.5431 H   0  0  0  0  0  0  0  0  0  0  0  0
    2.7710   -2.0564    1.9402 H   0  0  0  0  0  0  0  0  0  0  0  0
    2.3509   -1.3163    3.5322 H   0  0  0  0  0  0  0  0  0  0  0  0
    1.8626    0.7930    1.8890 H   0  0  0  0  0  0  0  0  0  0  0  0
   -1.1200    1.9047    0.0862 H   0  0  0  0  0  0  0  0  0  0  0  0
    0.4482    1.8047    0.9979 H   0  0  0  0  0  0  0  0  0  0  0  0
   -1.5201   -1.8010    0.1316 H   0  0  0  0  0  0  0  0  0  0  0  0
   -4.6556   -0.9555   -0.6741 H   0  0  0  0  0  0  0  0  0  0  0  0
   -3.7934   -1.0430   -2.2492 H   0  0  0  0  0  0  0  0  0  0  0  0
   -3.4168   -2.2334   -0.9350 H   0  0  0  0  0  0  0  0  0  0  0  0
  1  2  1  0
  1 11  1  0
  1 12  1  0
  1 13  1  0
  2  3  1  0
  2 14  1  0
  3  4  2  0
  3  5  1  0
  5  6  2  3
  5  7  1  0
  6 15  1  0
  6 16  1  0
  7  8  1  0
  7 17  1  0
  8  9  1  0
  8 10  2  0
  9 18  1  0
  9 19  1  0
  9 20  1  0
M  END

> <RosettaParamsInstructions>
M  ROOT 7
M  POLY_N_BB 7
M  POLY_CA_BB 5
M  POLY_C_BB 3
M  POLY_O_BB 4
M  POLY_IGNORE 1 10 9 14 11 12 13 18 19 20
M  POLY_UPPER 2
M  POLY_LOWER 8
M  POLY_CHG 0
M  POLY_PROPERTIES PROTEIN POLYMER ALPHA_AA ALIPHATIC
M  END

$$$$
DHA_new
     RDKit          3D

 20 19  0  0  0  0  0  0  0  0999 V2000
    2.6334   -1.0633    2.5720 C   0  0  0  0  0  0  0  0  0  0  0  0
    1.6692   -0.2314    1.8616 N   0  0  0  0  0  0  0  0  0  0  0  0
    0.5343   -0.8248    1.2979 C   0  0  0  0  0  0  0  0  0  0  0  0
    0.3701   -2.0957    1.4216 O   0  0  0  0  0  0  0  0  0  0  0  0
   -0.4786   -0.0390    0.5669 C   0  0  0  0  0  0  0  0  0  0  0  0
   -0.3255    1.2438    0.4346 C   0  0  0  0  0  0  0  0  0  0  0  0
   -1.5699   -0.7708    0.0527 N   0  0  0  0  0  0  0  0  0  0  0  0
   -2.6250   -0.2240   -0.6618 C   0  0  0  0  0  0  0  0  0  0  0  0
   -3.7191   -1.1460   -1.1446 C   0  0  0  0  0  0  0  0  0  0  0  0
   -2.7840    0.9717   -0.9623 O   0  0  0  0  0  0  0  0  0  0  0  0
    3.1794   -0.4744    3.3488 H   0  0  0  0  0  0  0  0  0  0  0  0
    2.1422   -1.9368    3.0419 H   0  0  0  0  0  0  0  0  0  0  0  0
    3.4291   -1.4218    1.8669 H   0  0  0  0  0  0  0  0  0  0  0  0
    1.8773    0.7722    1.8101 H   0  0  0  0  0  0  0  0  0  0  0  0
    0.5458    1.7460    0.8593 H   0  0  0  0  0  0  0  0  0  0  0  0
   -1.0390    1.8485   -0.0892 H   0  0  0  0  0  0  0  0  0  0  0  0
   -1.6032   -1.8238    0.2156 H   0  0  0  0  0  0  0  0  0  0  0  0
   -3.8284   -1.9324   -0.3593 H   0  0  0  0  0  0  0  0  0  0  0  0
   -3.3587   -1.6315   -2.0638 H   0  0  0  0  0  0  0  0  0  0  0  0
   -4.6560   -0.6185   -1.3279 H   0  0  0  0  0  0  0  0  0  0  0  0
  1  2  1  0
  1 11  1  0
  1 12  1  0
  1 13  1  0
  2  3  1  0
  2 14  1  0
  3  4  2  0
  3  5  1  0
  5  6  2  3
  5  7  1  0
  6 15  1  0
  6 16  1  0
  7  8  1  0
  7 17  1  0
  8  9  1  0
  8 10  2  0
  9 18  1  0
  9 19  1  0
  9 20  1  0
M  END

> <RosettaParamsInstructions>
M  ROOT 7
M  POLY_N_BB 7
M  POLY_CA_BB 5
M  POLY_C_BB 3
M  POLY_O_BB 4
M  POLY_IGNORE 1 10 9 14 11 12 13 18 19 20
M  POLY_UPPER 2
M  POLY_LOWER 8
M  POLY_CHG 0
M  POLY_PROPERTIES PROTEIN POLYMER ALPHA_AA ALIPHATIC
M  END

$$$$
DHA_new
     RDKit          3D

 20 19  0  0  0  0  0  0  0  0999 V2000
    2.2820   -1.5845    2.4400 C   0  0  0  0  0  0  0  0  0  0  0  0
    1.0838   -1.2180    1.6774 N   0  0  0  0  0  0  0  0  0  0  0  0
    0.8313    0.1147    1.3122 C   0  0  0  0  0  0  0  0  0  0  0  0
    1.6588    0.9936    1.6545 O   0  0  0  0  0  0  0  0  0  0  0  0
   -0.3611    0.5206    0.5465 C   0  0  0  0  0  0  0  0  0  0  0  0
   -0.5089    1.8086    0.2500 C   0  0  0  0  0  0  0  0  0  0  0  0
   -1.3063   -0.4582    0.1514 N   0  0  0  0  0  0  0  0  0  0  0  0
   -2.4875   -0.2302   -0.5788 C   0  0  0  0  0  0  0  0  0  0  0  0
   -3.3537   -1.4176   -0.8936 C   0  0  0  0  0  0  0  0  0  0  0  0
   -2.9011    0.8630   -0.9995 O   0  0  0  0  0  0  0  0  0  0  0  0
    2.0214   -2.3632    3.1775 H   0  0  0  0  0  0  0  0  0  0  0  0
    2.7193   -0.7272    2.9637 H   0  0  0  0  0  0  0  0  0  0  0  0
    2.9974   -2.0102    1.7213 H   0  0  0  0  0  0  0  0  0  0  0  0
    0.4620   -2.0081    1.4413 H   0  0  0  0  0  0  0  0  0  0  0  0
    0.2800    2.4937    0.6013 H   0  0  0  0  0  0  0  0  0  0  0  0
   -1.3272    2.1876   -0.2918 H   0  0  0  0  0  0  0  0  0  0  0  0
   -1.1078   -1.4689    0.4325 H   0  0  0  0  0  0  0  0  0  0  0  0
   -2.8523   -1.9465   -1.7191 H   0  0  0  0  0  0  0  0  0  0  0  0
   -4.3739   -1.1336   -1.1516 H   0  0  0  0  0  0  0  0  0  0  0  0
   -3.3627   -2.0679    0.0056 H   0  0  0  0  0  0  0  0  0  0  0  0
  1  2  1  0
  1 11  1  0
  1 12  1  0
  1 13  1  0
  2  3  1  0
  2 14  1  0
  3  4  2  0
  3  5  1  0
  5  6  2  3
  5  7  1  0
  6 15  1  0
  6 16  1  0
  7  8  1  0
  7 17  1  0
  8  9  1  0
  8 10  2  0
  9 18  1  0
  9 19  1  0
  9 20  1  0
M  END

> <RosettaParamsInstructions>
M  ROOT 7
M  POLY_N_BB 7
M  POLY_CA_BB 5
M  POLY_C_BB 3
M  POLY_O_BB 4
M  POLY_IGNORE 1 10 9 14 11 12 13 18 19 20
M  POLY_UPPER 2
M  POLY_LOWER 8
M  POLY_CHG 0
M  POLY_PROPERTIES PROTEIN POLYMER ALPHA_AA ALIPHATIC
M  END

$$$$
DHA_new
     RDKit          3D

 20 19  0  0  0  0  0  0  0  0999 V2000
    2.5965   -1.0588    2.6392 C   0  0  0  0  0  0  0  0  0  0  0  0
    1.6324   -0.2213    1.9075 N   0  0  0  0  0  0  0  0  0  0  0  0
    0.5301   -0.8490    1.3245 C   0  0  0  0  0  0  0  0  0  0  0  0
    0.4037   -2.1084    1.4476 O   0  0  0  0  0  0  0  0  0  0  0  0
   -0.4648   -0.0672    0.5827 C   0  0  0  0  0  0  0  0  0  0  0  0
   -0.3072    1.2334    0.4724 C   0  0  0  0  0  0  0  0  0  0  0  0
   -1.5440   -0.7937    0.0298 N   0  0  0  0  0  0  0  0  0  0  0  0
   -2.6140   -0.2533   -0.7202 C   0  0  0  0  0  0  0  0  0  0  0  0
   -3.7005   -1.1715   -1.2469 C   0  0  0  0  0  0  0  0  0  0  0  0
   -2.7405    0.9522   -0.9914 O   0  0  0  0  0  0  0  0  0  0  0  0
    2.5115   -0.8184    3.7099 H   0  0  0  0  0  0  0  0  0  0  0  0
    3.5919   -0.7594    2.2850 H   0  0  0  0  0  0  0  0  0  0  0  0
    2.4406   -2.1299    2.4092 H   0  0  0  0  0  0  0  0  0  0  0  0
    1.8592    0.7722    1.8893 H   0  0  0  0  0  0  0  0  0  0  0  0
   -0.9875    1.8822   -0.0531 H   0  0  0  0  0  0  0  0  0  0  0  0
    0.5398    1.7717    0.9115 H   0  0  0  0  0  0  0  0  0  0  0  0
   -1.5343   -1.8436    0.2037 H   0  0  0  0  0  0  0  0  0  0  0  0
   -4.0012   -0.7953   -2.2353 H   0  0  0  0  0  0  0  0  0  0  0  0
   -3.2911   -2.2020   -1.2969 H   0  0  0  0  0  0  0  0  0  0  0  0
   -4.5270   -1.1921   -0.5274 H   0  0  0  0  0  0  0  0  0  0  0  0
  1  2  1  0
  1 11  1  0
  1 12  1  0
  1 13  1  0
  2  3  1  0
  2 14  1  0
  3  4  2  0
  3  5  1  0
  5  6  2  3
  5  7  1  0
  6 15  1  0
  6 16  1  0
  7  8  1  0
  7 17  1  0
  8  9  1  0
  8 10  2  0
  9 18  1  0
  9 19  1  0
  9 20  1  0
M  END

> <RosettaParamsInstructions>
M  ROOT 7
M  POLY_N_BB 7
M  POLY_CA_BB 5
M  POLY_C_BB 3
M  POLY_O_BB 4
M  POLY_IGNORE 1 10 9 14 11 12 13 18 19 20
M  POLY_UPPER 2
M  POLY_LOWER 8
M  POLY_CHG 0
M  POLY_PROPERTIES PROTEIN POLYMER ALPHA_AA ALIPHATIC
M  END

$$$$
DHA_new
     RDKit          3D

 20 19  0  0  0  0  0  0  0  0999 V2000
    2.6904   -1.0922    2.5053 C   0  0  0  0  0  0  0  0  0  0  0  0
    1.7036   -0.2104    1.8648 N   0  0  0  0  0  0  0  0  0  0  0  0
    0.5905   -0.8054    1.2760 C   0  0  0  0  0  0  0  0  0  0  0  0
    0.4885   -2.0806    1.3248 O   0  0  0  0  0  0  0  0  0  0  0  0
   -0.4805   -0.0502    0.5978 C   0  0  0  0  0  0  0  0  0  0  0  0
   -0.3592    1.2585    0.5573 C   0  0  0  0  0  0  0  0  0  0  0  0
   -1.5558   -0.7745    0.0415 N   0  0  0  0  0  0  0  0  0  0  0  0
   -2.6591   -0.2588   -0.6351 C   0  0  0  0  0  0  0  0  0  0  0  0
   -3.7292   -1.1784   -1.1719 C   0  0  0  0  0  0  0  0  0  0  0  0
   -2.8220    0.9551   -0.8307 O   0  0  0  0  0  0  0  0  0  0  0  0
    2.6978   -2.0505    1.9482 H   0  0  0  0  0  0  0  0  0  0  0  0
    3.6890   -0.6164    2.4506 H   0  0  0  0  0  0  0  0  0  0  0  0
    2.3947   -1.2396    3.5538 H   0  0  0  0  0  0  0  0  0  0  0  0
    1.8459    0.8124    1.8604 H   0  0  0  0  0  0  0  0  0  0  0  0
    0.4906    1.7754    1.0015 H   0  0  0  0  0  0  0  0  0  0  0  0
   -1.0951    1.9189    0.0794 H   0  0  0  0  0  0  0  0  0  0  0  0
   -1.5105   -1.8347    0.1567 H   0  0  0  0  0  0  0  0  0  0  0  0
   -3.7043   -2.0863   -0.5471 H   0  0  0  0  0  0  0  0  0  0  0  0
   -4.7225   -0.6888   -1.0644 H   0  0  0  0  0  0  0  0  0  0  0  0
   -3.5593   -1.4059   -2.2281 H   0  0  0  0  0  0  0  0  0  0  0  0
  1  2  1  0
  1 11  1  0
  1 12  1  0
  1 13  1  0
  2  3  1  0
  2 14  1  0
  3  4  2  0
  3  5  1  0
  5  6  2  3
  5  7  1  0
  6 15  1  0
  6 16  1  0
  7  8  1  0
  7 17  1  0
  8  9  1  0
  8 10  2  0
  9 18  1  0
  9 19  1  0
  9 20  1  0
M  END

> <RosettaParamsInstructions>
M  ROOT 7
M  POLY_N_BB 7
M  POLY_CA_BB 5
M  POLY_C_BB 3
M  POLY_O_BB 4
M  POLY_IGNORE 1 10 9 14 11 12 13 18 19 20
M  POLY_UPPER 2
M  POLY_LOWER 8
M  POLY_CHG 0
M  POLY_PROPERTIES PROTEIN POLYMER ALPHA_AA ALIPHATIC
M  END

$$$$
DHA_new
     RDKit          3D

 20 19  0  0  0  0  0  0  0  0999 V2000
    2.2242   -1.5451    2.5514 C   0  0  0  0  0  0  0  0  0  0  0  0
    1.0600   -1.1758    1.7519 N   0  0  0  0  0  0  0  0  0  0  0  0
    0.8611    0.1296    1.2751 C   0  0  0  0  0  0  0  0  0  0  0  0
    1.7383    1.0102    1.5601 O   0  0  0  0  0  0  0  0  0  0  0  0
   -0.3174    0.4966    0.4677 C   0  0  0  0  0  0  0  0  0  0  0  0
   -0.4150    1.7432    0.0677 C   0  0  0  0  0  0  0  0  0  0  0  0
   -1.3064   -0.4418    0.1313 N   0  0  0  0  0  0  0  0  0  0  0  0
   -2.4695   -0.2537   -0.6180 C   0  0  0  0  0  0  0  0  0  0  0  0
   -3.3710   -1.4442   -0.8328 C   0  0  0  0  0  0  0  0  0  0  0  0
   -2.8399    0.8039   -1.1298 O   0  0  0  0  0  0  0  0  0  0  0  0
    2.7981   -0.6836    2.8944 H   0  0  0  0  0  0  0  0  0  0  0  0
    1.8879   -2.1087    3.4576 H   0  0  0  0  0  0  0  0  0  0  0  0
    2.8735   -2.1754    1.9284 H   0  0  0  0  0  0  0  0  0  0  0  0
    0.4015   -1.9555    1.5704 H   0  0  0  0  0  0  0  0  0  0  0  0
    0.3706    2.4527    0.3447 H   0  0  0  0  0  0  0  0  0  0  0  0
   -1.2313    2.0825   -0.5148 H   0  0  0  0  0  0  0  0  0  0  0  0
   -1.1312   -1.4318    0.5075 H   0  0  0  0  0  0  0  0  0  0  0  0
   -3.7113   -1.4031   -1.8819 H   0  0  0  0  0  0  0  0  0  0  0  0
   -2.8126   -2.3813   -0.6516 H   0  0  0  0  0  0  0  0  0  0  0  0
   -4.2160   -1.3710   -0.1384 H   0  0  0  0  0  0  0  0  0  0  0  0
  1  2  1  0
  1 11  1  0
  1 12  1  0
  1 13  1  0
  2  3  1  0
  2 14  1  0
  3  4  2  0
  3  5  1  0
  5  6  2  3
  5  7  1  0
  6 15  1  0
  6 16  1  0
  7  8  1  0
  7 17  1  0
  8  9  1  0
  8 10  2  0
  9 18  1  0
  9 19  1  0
  9 20  1  0
M  END

> <RosettaParamsInstructions>
M  ROOT 7
M  POLY_N_BB 7
M  POLY_CA_BB 5
M  POLY_C_BB 3
M  POLY_O_BB 4
M  POLY_IGNORE 1 10 9 14 11 12 13 18 19 20
M  POLY_UPPER 2
M  POLY_LOWER 8
M  POLY_CHG 0
M  POLY_PROPERTIES PROTEIN POLYMER ALPHA_AA ALIPHATIC
M  END

$$$$
DHA_new
     RDKit          3D

 20 19  0  0  0  0  0  0  0  0999 V2000
    2.3604   -1.6039    2.2942 C   0  0  0  0  0  0  0  0  0  0  0  0
    1.1136   -1.2908    1.5620 N   0  0  0  0  0  0  0  0  0  0  0  0
    0.7816    0.0554    1.4049 C   0  0  0  0  0  0  0  0  0  0  0  0
    1.5657    0.9353    1.8977 O   0  0  0  0  0  0  0  0  0  0  0  0
   -0.4146    0.4936    0.7066 C   0  0  0  0  0  0  0  0  0  0  0  0
   -0.6369    1.8177    0.6141 C   0  0  0  0  0  0  0  0  0  0  0  0
   -1.2955   -0.4571    0.1541 N   0  0  0  0  0  0  0  0  0  0  0  0
   -2.4882   -0.2199   -0.5482 C   0  0  0  0  0  0  0  0  0  0  0  0
   -3.2727   -1.4147   -1.0507 C   0  0  0  0  0  0  0  0  0  0  0  0
   -3.0108    0.8745   -0.8262 O   0  0  0  0  0  0  0  0  0  0  0  0
    2.1767   -1.3793    3.3573 H   0  0  0  0  0  0  0  0  0  0  0  0
    3.1212   -0.8832    1.9254 H   0  0  0  0  0  0  0  0  0  0  0  0
    2.6564   -2.6515    2.1049 H   0  0  0  0  0  0  0  0  0  0  0  0
    0.5352   -2.0869    1.1941 H   0  0  0  0  0  0  0  0  0  0  0  0
   -1.4970    2.1867    0.1136 H   0  0  0  0  0  0  0  0  0  0  0  0
    0.0806    2.4891    1.0610 H   0  0  0  0  0  0  0  0  0  0  0  0
   -1.0273   -1.4789    0.2830 H   0  0  0  0  0  0  0  0  0  0  0  0
   -2.9018   -2.3169   -0.5575 H   0  0  0  0  0  0  0  0  0  0  0  0
   -4.3483   -1.2138   -0.8220 H   0  0  0  0  0  0  0  0  0  0  0  0
   -3.1048   -1.5078   -2.1274 H   0  0  0  0  0  0  0  0  0  0  0  0
  1  2  1  0
  1 11  1  0
  1 12  1  0
  1 13  1  0
  2  3  1  0
  2 14  1  0
  3  4  2  0
  3  5  1  0
  5  6  2  3
  5  7  1  0
  6 15  1  0
  6 16  1  0
  7  8  1  0
  7 17  1  0
  8  9  1  0
  8 10  2  0
  9 18  1  0
  9 19  1  0
  9 20  1  0
M  END

> <RosettaParamsInstructions>
M  ROOT 7
M  POLY_N_BB 7
M  POLY_CA_BB 5
M  POLY_C_BB 3
M  POLY_O_BB 4
M  POLY_IGNORE 1 10 9 14 11 12 13 18 19 20
M  POLY_UPPER 2
M  POLY_LOWER 8
M  POLY_CHG 0
M  POLY_PROPERTIES PROTEIN POLYMER ALPHA_AA ALIPHATIC
M  END

$$$$
DHA_new
     RDKit          3D

 20 19  0  0  0  0  0  0  0  0999 V2000
    2.6870   -1.0595    2.5989 C   0  0  0  0  0  0  0  0  0  0  0  0
    1.6843   -0.2281    1.9079 N   0  0  0  0  0  0  0  0  0  0  0  0
    0.5560   -0.8105    1.3004 C   0  0  0  0  0  0  0  0  0  0  0  0
    0.4345   -2.0595    1.3680 O   0  0  0  0  0  0  0  0  0  0  0  0
   -0.4987   -0.0653    0.5881 C   0  0  0  0  0  0  0  0  0  0  0  0
   -0.4102    1.2272    0.4959 C   0  0  0  0  0  0  0  0  0  0  0  0
   -1.5651   -0.7842    0.0328 N   0  0  0  0  0  0  0  0  0  0  0  0
   -2.6310   -0.2262   -0.6653 C   0  0  0  0  0  0  0  0  0  0  0  0
   -3.7088   -1.1661   -1.2025 C   0  0  0  0  0  0  0  0  0  0  0  0
   -2.8313    0.9773   -0.9197 O   0  0  0  0  0  0  0  0  0  0  0  0
    3.5103   -0.4399    2.9981 H   0  0  0  0  0  0  0  0  0  0  0  0
    3.1503   -1.7685    1.8579 H   0  0  0  0  0  0  0  0  0  0  0  0
    2.1626   -1.6586    3.3577 H   0  0  0  0  0  0  0  0  0  0  0  0
    1.8753    0.7956    1.9072 H   0  0  0  0  0  0  0  0  0  0  0  0
    0.4461    1.7390    0.9491 H   0  0  0  0  0  0  0  0  0  0  0  0
   -1.0982    1.8779    0.0128 H   0  0  0  0  0  0  0  0  0  0  0  0
   -1.5356   -1.8306    0.1678 H   0  0  0  0  0  0  0  0  0  0  0  0
   -4.6477   -0.9700   -0.6702 H   0  0  0  0  0  0  0  0  0  0  0  0
   -3.3964   -2.2207   -1.0563 H   0  0  0  0  0  0  0  0  0  0  0  0
   -3.7899   -0.9818   -2.2877 H   0  0  0  0  0  0  0  0  0  0  0  0
  1  2  1  0
  1 11  1  0
  1 12  1  0
  1 13  1  0
  2  3  1  0
  2 14  1  0
  3  4  2  0
  3  5  1  0
  5  6  2  3
  5  7  1  0
  6 15  1  0
  6 16  1  0
  7  8  1  0
  7 17  1  0
  8  9  1  0
  8 10  2  0
  9 18  1  0
  9 19  1  0
  9 20  1  0
M  END

> <RosettaParamsInstructions>
M  ROOT 7
M  POLY_N_BB 7
M  POLY_CA_BB 5
M  POLY_C_BB 3
M  POLY_O_BB 4
M  POLY_IGNORE 1 10 9 14 11 12 13 18 19 20
M  POLY_UPPER 2
M  POLY_LOWER 8
M  POLY_CHG 0
M  POLY_PROPERTIES PROTEIN POLYMER ALPHA_AA ALIPHATIC
M  END

$$$$
DHA_new
     RDKit          3D

 20 19  0  0  0  0  0  0  0  0999 V2000
    2.6510   -1.0894    2.5712 C   0  0  0  0  0  0  0  0  0  0  0  0
    1.6931   -0.2318    1.8669 N   0  0  0  0  0  0  0  0  0  0  0  0
    0.5608   -0.8306    1.3071 C   0  0  0  0  0  0  0  0  0  0  0  0
    0.3703   -2.0846    1.4080 O   0  0  0  0  0  0  0  0  0  0  0  0
   -0.4388   -0.0527    0.5920 C   0  0  0  0  0  0  0  0  0  0  0  0
   -0.2984    1.2430    0.4550 C   0  0  0  0  0  0  0  0  0  0  0  0
   -1.5573   -0.7695    0.0603 N   0  0  0  0  0  0  0  0  0  0  0  0
   -2.6313   -0.2324   -0.6575 C   0  0  0  0  0  0  0  0  0  0  0  0
   -3.7160   -1.1790   -1.1307 C   0  0  0  0  0  0  0  0  0  0  0  0
   -2.7989    0.9688   -0.9585 O   0  0  0  0  0  0  0  0  0  0  0  0
    2.1209   -1.9567    2.9945 H   0  0  0  0  0  0  0  0  0  0  0  0
    3.1142   -0.4482    3.3549 H   0  0  0  0  0  0  0  0  0  0  0  0
    3.4508   -1.4147    1.8807 H   0  0  0  0  0  0  0  0  0  0  0  0
    1.8645    0.7817    1.7957 H   0  0  0  0  0  0  0  0  0  0  0  0
    0.5476    1.7806    0.8579 H   0  0  0  0  0  0  0  0  0  0  0  0
   -1.0056    1.8786   -0.0654 H   0  0  0  0  0  0  0  0  0  0  0  0
   -1.5677   -1.8285    0.2333 H   0  0  0  0  0  0  0  0  0  0  0  0
   -3.3726   -2.2166   -1.1303 H   0  0  0  0  0  0  0  0  0  0  0  0
   -3.9735   -0.8873   -2.1805 H   0  0  0  0  0  0  0  0  0  0  0  0
   -4.6195   -1.0828   -0.5138 H   0  0  0  0  0  0  0  0  0  0  0  0
  1  2  1  0
  1 11  1  0
  1 12  1  0
  1 13  1  0
  2  3  1  0
  2 14  1  0
  3  4  2  0
  3  5  1  0
  5  6  2  3
  5  7  1  0
  6 15  1  0
  6 16  1  0
  7  8  1  0
  7 17  1  0
  8  9  1  0
  8 10  2  0
  9 18  1  0
  9 19  1  0
  9 20  1  0
M  END

> <RosettaParamsInstructions>
M  ROOT 7
M  POLY_N_BB 7
M  POLY_CA_BB 5
M  POLY_C_BB 3
M  POLY_O_BB 4
M  POLY_IGNORE 1 10 9 14 11 12 13 18 19 20
M  POLY_UPPER 2
M  POLY_LOWER 8
M  POLY_CHG 0
M  POLY_PROPERTIES PROTEIN POLYMER ALPHA_AA ALIPHATIC
M  END

$$$$
DHA_new
     RDKit          3D

 20 19  0  0  0  0  0  0  0  0999 V2000
    2.7038   -1.0887    2.4738 C   0  0  0  0  0  0  0  0  0  0  0  0
    1.6951   -0.2103    1.8439 N   0  0  0  0  0  0  0  0  0  0  0  0
    0.5890   -0.8312    1.2607 C   0  0  0  0  0  0  0  0  0  0  0  0
    0.4525   -2.1015    1.2698 O   0  0  0  0  0  0  0  0  0  0  0  0
   -0.4674   -0.0468    0.6102 C   0  0  0  0  0  0  0  0  0  0  0  0
   -0.3589    1.2535    0.5833 C   0  0  0  0  0  0  0  0  0  0  0  0
   -1.5474   -0.7635    0.0483 N   0  0  0  0  0  0  0  0  0  0  0  0
   -2.6756   -0.2572   -0.6239 C   0  0  0  0  0  0  0  0  0  0  0  0
   -3.7232   -1.2078   -1.1515 C   0  0  0  0  0  0  0  0  0  0  0  0
   -2.8736    0.9584   -0.8183 O   0  0  0  0  0  0  0  0  0  0  0  0
    3.4513   -1.2999    1.7091 H   0  0  0  0  0  0  0  0  0  0  0  0
    3.1245   -0.5504    3.3686 H   0  0  0  0  0  0  0  0  0  0  0  0
    2.1943   -1.9729    2.8631 H   0  0  0  0  0  0  0  0  0  0  0  0
    1.8746    0.8032    1.8765 H   0  0  0  0  0  0  0  0  0  0  0  0
   -1.1080    1.8638    0.1184 H   0  0  0  0  0  0  0  0  0  0  0  0
    0.4770    1.7909    1.0195 H   0  0  0  0  0  0  0  0  0  0  0  0
   -1.5215   -1.8249    0.1350 H   0  0  0  0  0  0  0  0  0  0  0  0
   -4.6022   -1.1904   -0.4820 H   0  0  0  0  0  0  0  0  0  0  0  0
   -4.0475   -0.7915   -2.1218 H   0  0  0  0  0  0  0  0  0  0  0  0
   -3.2432   -2.1848   -1.2419 H   0  0  0  0  0  0  0  0  0  0  0  0
  1  2  1  0
  1 11  1  0
  1 12  1  0
  1 13  1  0
  2  3  1  0
  2 14  1  0
  3  4  2  0
  3  5  1  0
  5  6  2  3
  5  7  1  0
  6 15  1  0
  6 16  1  0
  7  8  1  0
  7 17  1  0
  8  9  1  0
  8 10  2  0
  9 18  1  0
  9 19  1  0
  9 20  1  0
M  END

> <RosettaParamsInstructions>
M  ROOT 7
M  POLY_N_BB 7
M  POLY_CA_BB 5
M  POLY_C_BB 3
M  POLY_O_BB 4
M  POLY_IGNORE 1 10 9 14 11 12 13 18 19 20
M  POLY_UPPER 2
M  POLY_LOWER 8
M  POLY_CHG 0
M  POLY_PROPERTIES PROTEIN POLYMER ALPHA_AA ALIPHATIC
M  END

$$$$
DHA_new
     RDKit          3D

 20 19  0  0  0  0  0  0  0  0999 V2000
    2.7140   -1.1072    2.4782 C   0  0  0  0  0  0  0  0  0  0  0  0
    1.7112   -0.2089    1.8911 N   0  0  0  0  0  0  0  0  0  0  0  0
    0.6032   -0.8079    1.2640 C   0  0  0  0  0  0  0  0  0  0  0  0
    0.5044   -2.0660    1.2245 O   0  0  0  0  0  0  0  0  0  0  0  0
   -0.4979   -0.0345    0.6222 C   0  0  0  0  0  0  0  0  0  0  0  0
   -0.4502    1.2767    0.6317 C   0  0  0  0  0  0  0  0  0  0  0  0
   -1.5617   -0.7527    0.0222 N   0  0  0  0  0  0  0  0  0  0  0  0
   -2.6758   -0.2236   -0.6237 C   0  0  0  0  0  0  0  0  0  0  0  0
   -3.7033   -1.1602   -1.1998 C   0  0  0  0  0  0  0  0  0  0  0  0
   -2.9006    0.9799   -0.7689 O   0  0  0  0  0  0  0  0  0  0  0  0
    3.5927   -0.5307    2.7668 H   0  0  0  0  0  0  0  0  0  0  0  0
    3.0235   -1.8591    1.7282 H   0  0  0  0  0  0  0  0  0  0  0  0
    2.2712   -1.5473    3.3803 H   0  0  0  0  0  0  0  0  0  0  0  0
    1.8340    0.8069    1.9477 H   0  0  0  0  0  0  0  0  0  0  0  0
   -1.1956    1.9045    0.1958 H   0  0  0  0  0  0  0  0  0  0  0  0
    0.3770    1.7712    1.0992 H   0  0  0  0  0  0  0  0  0  0  0  0
   -1.4755   -1.8229    0.0861 H   0  0  0  0  0  0  0  0  0  0  0  0
   -4.4100   -1.5032   -0.4234 H   0  0  0  0  0  0  0  0  0  0  0  0
   -4.2235   -0.6979   -2.0392 H   0  0  0  0  0  0  0  0  0  0  0  0
   -3.1436   -2.0694   -1.5422 H   0  0  0  0  0  0  0  0  0  0  0  0
  1  2  1  0
  1 11  1  0
  1 12  1  0
  1 13  1  0
  2  3  1  0
  2 14  1  0
  3  4  2  0
  3  5  1  0
  5  6  2  3
  5  7  1  0
  6 15  1  0
  6 16  1  0
  7  8  1  0
  7 17  1  0
  8  9  1  0
  8 10  2  0
  9 18  1  0
  9 19  1  0
  9 20  1  0
M  END

> <RosettaParamsInstructions>
M  ROOT 7
M  POLY_N_BB 7
M  POLY_CA_BB 5
M  POLY_C_BB 3
M  POLY_O_BB 4
M  POLY_IGNORE 1 10 9 14 11 12 13 18 19 20
M  POLY_UPPER 2
M  POLY_LOWER 8
M  POLY_CHG 0
M  POLY_PROPERTIES PROTEIN POLYMER ALPHA_AA ALIPHATIC
M  END

$$$$
DHA_new
     RDKit          3D

 20 19  0  0  0  0  0  0  0  0999 V2000
    2.6553   -1.0705    2.6017 C   0  0  0  0  0  0  0  0  0  0  0  0
    1.6787   -0.2331    1.8814 N   0  0  0  0  0  0  0  0  0  0  0  0
    0.5478   -0.8210    1.3090 C   0  0  0  0  0  0  0  0  0  0  0  0
    0.4078   -2.0730    1.4362 O   0  0  0  0  0  0  0  0  0  0  0  0
   -0.4701   -0.0646    0.5779 C   0  0  0  0  0  0  0  0  0  0  0  0
   -0.3532    1.2226    0.4311 C   0  0  0  0  0  0  0  0  0  0  0  0
   -1.5564   -0.8002    0.0567 N   0  0  0  0  0  0  0  0  0  0  0  0
   -2.6202   -0.2601   -0.6654 C   0  0  0  0  0  0  0  0  0  0  0  0
   -3.7169   -1.1654   -1.1642 C   0  0  0  0  0  0  0  0  0  0  0  0
   -2.7726    0.9394   -0.9573 O   0  0  0  0  0  0  0  0  0  0  0  0
    2.4613   -1.0843    3.6782 H   0  0  0  0  0  0  0  0  0  0  0  0
    2.6055   -2.0677    2.1175 H   0  0  0  0  0  0  0  0  0  0  0  0
    3.6739   -0.6694    2.4133 H   0  0  0  0  0  0  0  0  0  0  0  0
    1.8791    0.7739    1.8312 H   0  0  0  0  0  0  0  0  0  0  0  0
   -1.0241    1.8722   -0.0762 H   0  0  0  0  0  0  0  0  0  0  0  0
    0.5217    1.7494    0.8618 H   0  0  0  0  0  0  0  0  0  0  0  0
   -1.5755   -1.8587    0.2231 H   0  0  0  0  0  0  0  0  0  0  0  0
   -3.8461   -0.9741   -2.2401 H   0  0  0  0  0  0  0  0  0  0  0  0
   -4.6370   -0.8596   -0.6260 H   0  0  0  0  0  0  0  0  0  0  0  0
   -3.4656   -2.2080   -0.9494 H   0  0  0  0  0  0  0  0  0  0  0  0
  1  2  1  0
  1 11  1  0
  1 12  1  0
  1 13  1  0
  2  3  1  0
  2 14  1  0
  3  4  2  0
  3  5  1  0
  5  6  2  3
  5  7  1  0
  6 15  1  0
  6 16  1  0
  7  8  1  0
  7 17  1  0
  8  9  1  0
  8 10  2  0
  9 18  1  0
  9 19  1  0
  9 20  1  0
M  END

> <RosettaParamsInstructions>
M  ROOT 7
M  POLY_N_BB 7
M  POLY_CA_BB 5
M  POLY_C_BB 3
M  POLY_O_BB 4
M  POLY_IGNORE 1 10 9 14 11 12 13 18 19 20
M  POLY_UPPER 2
M  POLY_LOWER 8
M  POLY_CHG 0
M  POLY_PROPERTIES PROTEIN POLYMER ALPHA_AA ALIPHATIC
M  END

$$$$
DHA_new
     RDKit          3D

 20 19  0  0  0  0  0  0  0  0999 V2000
    2.6540   -1.0609    2.5821 C   0  0  0  0  0  0  0  0  0  0  0  0
    1.6767   -0.2531    1.8631 N   0  0  0  0  0  0  0  0  0  0  0  0
    0.5234   -0.8385    1.2975 C   0  0  0  0  0  0  0  0  0  0  0  0
    0.3448   -2.0879    1.4228 O   0  0  0  0  0  0  0  0  0  0  0  0
   -0.4592   -0.0454    0.5782 C   0  0  0  0  0  0  0  0  0  0  0  0
   -0.2787    1.2431    0.4466 C   0  0  0  0  0  0  0  0  0  0  0  0
   -1.5805   -0.7576    0.0572 N   0  0  0  0  0  0  0  0  0  0  0  0
   -2.6594   -0.2446   -0.6636 C   0  0  0  0  0  0  0  0  0  0  0  0
   -3.7381   -1.1503   -1.1254 C   0  0  0  0  0  0  0  0  0  0  0  0
   -2.7635    0.9569   -0.9434 O   0  0  0  0  0  0  0  0  0  0  0  0
    2.2380   -1.4613    3.5095 H   0  0  0  0  0  0  0  0  0  0  0  0
    3.0130   -1.9133    1.9540 H   0  0  0  0  0  0  0  0  0  0  0  0
    3.5288   -0.4298    2.8357 H   0  0  0  0  0  0  0  0  0  0  0  0
    1.8447    0.7553    1.7757 H   0  0  0  0  0  0  0  0  0  0  0  0
   -0.9846    1.8621   -0.0863 H   0  0  0  0  0  0  0  0  0  0  0  0
    0.5643    1.8030    0.8428 H   0  0  0  0  0  0  0  0  0  0  0  0
   -1.6311   -1.8250    0.2234 H   0  0  0  0  0  0  0  0  0  0  0  0
   -4.5030   -0.5947   -1.6836 H   0  0  0  0  0  0  0  0  0  0  0  0
   -4.1422   -1.7526   -0.2837 H   0  0  0  0  0  0  0  0  0  0  0  0
   -3.2537   -1.8575   -1.8617 H   0  0  0  0  0  0  0  0  0  0  0  0
  1  2  1  0
  1 11  1  0
  1 12  1  0
  1 13  1  0
  2  3  1  0
  2 14  1  0
  3  4  2  0
  3  5  1  0
  5  6  2  3
  5  7  1  0
  6 15  1  0
  6 16  1  0
  7  8  1  0
  7 17  1  0
  8  9  1  0
  8 10  2  0
  9 18  1  0
  9 19  1  0
  9 20  1  0
M  END

> <RosettaParamsInstructions>
M  ROOT 7
M  POLY_N_BB 7
M  POLY_CA_BB 5
M  POLY_C_BB 3
M  POLY_O_BB 4
M  POLY_IGNORE 1 10 9 14 11 12 13 18 19 20
M  POLY_UPPER 2
M  POLY_LOWER 8
M  POLY_CHG 0
M  POLY_PROPERTIES PROTEIN POLYMER ALPHA_AA ALIPHATIC
M  END

$$$$
DHA_new
     RDKit          3D

 20 19  0  0  0  0  0  0  0  0999 V2000
    2.5751   -1.0421    2.6689 C   0  0  0  0  0  0  0  0  0  0  0  0
    1.6863   -0.2417    1.8539 N   0  0  0  0  0  0  0  0  0  0  0  0
    0.5121   -0.7997    1.3521 C   0  0  0  0  0  0  0  0  0  0  0  0
    0.2645   -2.0113    1.6357 O   0  0  0  0  0  0  0  0  0  0  0  0
   -0.4325   -0.0446    0.5199 C   0  0  0  0  0  0  0  0  0  0  0  0
   -0.1806    1.2161    0.2215 C   0  0  0  0  0  0  0  0  0  0  0  0
   -1.5776   -0.7633    0.0928 N   0  0  0  0  0  0  0  0  0  0  0  0
   -2.6186   -0.2745   -0.7021 C   0  0  0  0  0  0  0  0  0  0  0  0
   -3.7761   -1.1794   -1.0704 C   0  0  0  0  0  0  0  0  0  0  0  0
   -2.6164    0.8998   -1.1187 O   0  0  0  0  0  0  0  0  0  0  0  0
    3.5677   -1.0838    2.1757 H   0  0  0  0  0  0  0  0  0  0  0  0
    2.1935   -2.0784    2.7357 H   0  0  0  0  0  0  0  0  0  0  0  0
    2.7402   -0.5906    3.6648 H   0  0  0  0  0  0  0  0  0  0  0  0
    1.9670    0.7299    1.6754 H   0  0  0  0  0  0  0  0  0  0  0  0
    0.7333    1.6973    0.5953 H   0  0  0  0  0  0  0  0  0  0  0  0
   -0.8039    1.8388   -0.3719 H   0  0  0  0  0  0  0  0  0  0  0  0
   -1.6785   -1.7790    0.3942 H   0  0  0  0  0  0  0  0  0  0  0  0
   -4.0206   -1.0504   -2.1531 H   0  0  0  0  0  0  0  0  0  0  0  0
   -3.4673   -2.2191   -0.9208 H   0  0  0  0  0  0  0  0  0  0  0  0
   -4.6739   -0.8761   -0.5080 H   0  0  0  0  0  0  0  0  0  0  0  0
  1  2  1  0
  1 11  1  0
  1 12  1  0
  1 13  1  0
  2  3  1  0
  2 14  1  0
  3  4  2  0
  3  5  1  0
  5  6  2  3
  5  7  1  0
  6 15  1  0
  6 16  1  0
  7  8  1  0
  7 17  1  0
  8  9  1  0
  8 10  2  0
  9 18  1  0
  9 19  1  0
  9 20  1  0
M  END

> <RosettaParamsInstructions>
M  ROOT 7
M  POLY_N_BB 7
M  POLY_CA_BB 5
M  POLY_C_BB 3
M  POLY_O_BB 4
M  POLY_IGNORE 1 10 9 14 11 12 13 18 19 20
M  POLY_UPPER 2
M  POLY_LOWER 8
M  POLY_CHG 0
M  POLY_PROPERTIES PROTEIN POLYMER ALPHA_AA ALIPHATIC
M  END

$$$$
DHA_new
     RDKit          3D

 20 19  0  0  0  0  0  0  0  0999 V2000
    2.6663   -1.0798    2.5746 C   0  0  0  0  0  0  0  0  0  0  0  0
    1.7170   -0.2009    1.8753 N   0  0  0  0  0  0  0  0  0  0  0  0
    0.5765   -0.7961    1.3098 C   0  0  0  0  0  0  0  0  0  0  0  0
    0.4249   -2.0434    1.4290 O   0  0  0  0  0  0  0  0  0  0  0  0
   -0.4686   -0.0336    0.5740 C   0  0  0  0  0  0  0  0  0  0  0  0
   -0.3018    1.2569    0.4565 C   0  0  0  0  0  0  0  0  0  0  0  0
   -1.5743   -0.7620    0.0510 N   0  0  0  0  0  0  0  0  0  0  0  0
   -2.6448   -0.2436   -0.6588 C   0  0  0  0  0  0  0  0  0  0  0  0
   -3.7266   -1.1728   -1.1346 C   0  0  0  0  0  0  0  0  0  0  0  0
   -2.8199    0.9573   -0.9606 O   0  0  0  0  0  0  0  0  0  0  0  0
    2.6280   -2.0560    2.0753 H   0  0  0  0  0  0  0  0  0  0  0  0
    3.6671   -0.6584    2.4850 H   0  0  0  0  0  0  0  0  0  0  0  0
    2.3062   -1.1685    3.6157 H   0  0  0  0  0  0  0  0  0  0  0  0
    1.9670    0.8056    1.8542 H   0  0  0  0  0  0  0  0  0  0  0  0
    0.5672    1.7260    0.8848 H   0  0  0  0  0  0  0  0  0  0  0  0
   -1.0227    1.8638   -0.0645 H   0  0  0  0  0  0  0  0  0  0  0  0
   -1.5506   -1.8163    0.2402 H   0  0  0  0  0  0  0  0  0  0  0  0
   -3.7672   -1.1891   -2.2535 H   0  0  0  0  0  0  0  0  0  0  0  0
   -4.7209   -0.8376   -0.7920 H   0  0  0  0  0  0  0  0  0  0  0  0
   -3.5293   -2.2037   -0.8206 H   0  0  0  0  0  0  0  0  0  0  0  0
  1  2  1  0
  1 11  1  0
  1 12  1  0
  1 13  1  0
  2  3  1  0
  2 14  1  0
  3  4  2  0
  3  5  1  0
  5  6  2  3
  5  7  1  0
  6 15  1  0
  6 16  1  0
  7  8  1  0
  7 17  1  0
  8  9  1  0
  8 10  2  0
  9 18  1  0
  9 19  1  0
  9 20  1  0
M  END

> <RosettaParamsInstructions>
M  ROOT 7
M  POLY_N_BB 7
M  POLY_CA_BB 5
M  POLY_C_BB 3
M  POLY_O_BB 4
M  POLY_IGNORE 1 10 9 14 11 12 13 18 19 20
M  POLY_UPPER 2
M  POLY_LOWER 8
M  POLY_CHG 0
M  POLY_PROPERTIES PROTEIN POLYMER ALPHA_AA ALIPHATIC
M  END

$$$$
DHA_new
     RDKit          3D

 20 19  0  0  0  0  0  0  0  0999 V2000
    2.6744   -1.0859    2.5832 C   0  0  0  0  0  0  0  0  0  0  0  0
    1.7033   -0.2323    1.8730 N   0  0  0  0  0  0  0  0  0  0  0  0
    0.5738   -0.8048    1.3046 C   0  0  0  0  0  0  0  0  0  0  0  0
    0.4068   -2.0544    1.4123 O   0  0  0  0  0  0  0  0  0  0  0  0
   -0.4490   -0.0563    0.5815 C   0  0  0  0  0  0  0  0  0  0  0  0
   -0.3494    1.2367    0.4270 C   0  0  0  0  0  0  0  0  0  0  0  0
   -1.5496   -0.7634    0.0522 N   0  0  0  0  0  0  0  0  0  0  0  0
   -2.6282   -0.2417   -0.6664 C   0  0  0  0  0  0  0  0  0  0  0  0
   -3.7226   -1.1736   -1.1549 C   0  0  0  0  0  0  0  0  0  0  0  0
   -2.7982    0.9509   -0.9624 O   0  0  0  0  0  0  0  0  0  0  0  0
    2.1728   -1.4180    3.5069 H   0  0  0  0  0  0  0  0  0  0  0  0
    2.9269   -1.9288    1.9050 H   0  0  0  0  0  0  0  0  0  0  0  0
    3.5821   -0.5067    2.8324 H   0  0  0  0  0  0  0  0  0  0  0  0
    1.8968    0.7760    1.8206 H   0  0  0  0  0  0  0  0  0  0  0  0
   -1.0328    1.8864   -0.0808 H   0  0  0  0  0  0  0  0  0  0  0  0
    0.5219    1.7411    0.8551 H   0  0  0  0  0  0  0  0  0  0  0  0
   -1.5637   -1.8292    0.2194 H   0  0  0  0  0  0  0  0  0  0  0  0
   -3.5736   -2.1656   -0.6983 H   0  0  0  0  0  0  0  0  0  0  0  0
   -3.7145   -1.2353   -2.2552 H   0  0  0  0  0  0  0  0  0  0  0  0
   -4.6836   -0.7473   -0.8145 H   0  0  0  0  0  0  0  0  0  0  0  0
  1  2  1  0
  1 11  1  0
  1 12  1  0
  1 13  1  0
  2  3  1  0
  2 14  1  0
  3  4  2  0
  3  5  1  0
  5  6  2  3
  5  7  1  0
  6 15  1  0
  6 16  1  0
  7  8  1  0
  7 17  1  0
  8  9  1  0
  8 10  2  0
  9 18  1  0
  9 19  1  0
  9 20  1  0
M  END

> <RosettaParamsInstructions>
M  ROOT 7
M  POLY_N_BB 7
M  POLY_CA_BB 5
M  POLY_C_BB 3
M  POLY_O_BB 4
M  POLY_IGNORE 1 10 9 14 11 12 13 18 19 20
M  POLY_UPPER 2
M  POLY_LOWER 8
M  POLY_CHG 0
M  POLY_PROPERTIES PROTEIN POLYMER ALPHA_AA ALIPHATIC
M  END

$$$$
DHA_new
     RDKit          3D

 20 19  0  0  0  0  0  0  0  0999 V2000
    2.6242   -1.0619    2.6652 C   0  0  0  0  0  0  0  0  0  0  0  0
    1.6799   -0.2512    1.8744 N   0  0  0  0  0  0  0  0  0  0  0  0
    0.5256   -0.7946    1.3245 C   0  0  0  0  0  0  0  0  0  0  0  0
    0.3093   -2.0471    1.5341 O   0  0  0  0  0  0  0  0  0  0  0  0
   -0.4418   -0.0396    0.5348 C   0  0  0  0  0  0  0  0  0  0  0  0
   -0.2317    1.2392    0.3143 C   0  0  0  0  0  0  0  0  0  0  0  0
   -1.5765   -0.7378    0.0387 N   0  0  0  0  0  0  0  0  0  0  0  0
   -2.6308   -0.2599   -0.7283 C   0  0  0  0  0  0  0  0  0  0  0  0
   -3.7346   -1.1972   -1.1407 C   0  0  0  0  0  0  0  0  0  0  0  0
   -2.7204    0.9140   -1.1014 O   0  0  0  0  0  0  0  0  0  0  0  0
    2.0328   -1.9254    3.0304 H   0  0  0  0  0  0  0  0  0  0  0  0
    3.4612   -1.3487    2.0222 H   0  0  0  0  0  0  0  0  0  0  0  0
    2.9992   -0.4571    3.5089 H   0  0  0  0  0  0  0  0  0  0  0  0
    1.9546    0.7279    1.7744 H   0  0  0  0  0  0  0  0  0  0  0  0
   -0.9208    1.8454   -0.2667 H   0  0  0  0  0  0  0  0  0  0  0  0
    0.6692    1.6894    0.7364 H   0  0  0  0  0  0  0  0  0  0  0  0
   -1.6080   -1.7770    0.3020 H   0  0  0  0  0  0  0  0  0  0  0  0
   -3.5570   -1.5302   -2.1640 H   0  0  0  0  0  0  0  0  0  0  0  0
   -3.7638   -2.0221   -0.3999 H   0  0  0  0  0  0  0  0  0  0  0  0
   -4.6772   -0.6182   -1.1184 H   0  0  0  0  0  0  0  0  0  0  0  0
  1  2  1  0
  1 11  1  0
  1 12  1  0
  1 13  1  0
  2  3  1  0
  2 14  1  0
  3  4  2  0
  3  5  1  0
  5  6  2  3
  5  7  1  0
  6 15  1  0
  6 16  1  0
  7  8  1  0
  7 17  1  0
  8  9  1  0
  8 10  2  0
  9 18  1  0
  9 19  1  0
  9 20  1  0
M  END

> <RosettaParamsInstructions>
M  ROOT 7
M  POLY_N_BB 7
M  POLY_CA_BB 5
M  POLY_C_BB 3
M  POLY_O_BB 4
M  POLY_IGNORE 1 10 9 14 11 12 13 18 19 20
M  POLY_UPPER 2
M  POLY_LOWER 8
M  POLY_CHG 0
M  POLY_PROPERTIES PROTEIN POLYMER ALPHA_AA ALIPHATIC
M  END

$$$$
DHA_new
     RDKit          3D

 20 19  0  0  0  0  0  0  0  0999 V2000
    2.7101   -1.0515    2.5215 C   0  0  0  0  0  0  0  0  0  0  0  0
    1.6735   -0.2340    1.8558 N   0  0  0  0  0  0  0  0  0  0  0  0
    0.5595   -0.8462    1.2644 C   0  0  0  0  0  0  0  0  0  0  0  0
    0.4707   -2.1105    1.3184 O   0  0  0  0  0  0  0  0  0  0  0  0
   -0.4675   -0.0440    0.6055 C   0  0  0  0  0  0  0  0  0  0  0  0
   -0.3516    1.2627    0.5635 C   0  0  0  0  0  0  0  0  0  0  0  0
   -1.5512   -0.7723    0.0412 N   0  0  0  0  0  0  0  0  0  0  0  0
   -2.6589   -0.2364   -0.6422 C   0  0  0  0  0  0  0  0  0  0  0  0
   -3.7185   -1.1821   -1.1745 C   0  0  0  0  0  0  0  0  0  0  0  0
   -2.8570    0.9713   -0.8571 O   0  0  0  0  0  0  0  0  0  0  0  0
    3.2351   -0.4743    3.2894 H   0  0  0  0  0  0  0  0  0  0  0  0
    2.2002   -1.9512    2.9442 H   0  0  0  0  0  0  0  0  0  0  0  0
    3.4187   -1.4112    1.7625 H   0  0  0  0  0  0  0  0  0  0  0  0
    1.8554    0.7913    1.8754 H   0  0  0  0  0  0  0  0  0  0  0  0
    0.4763    1.7879    0.9972 H   0  0  0  0  0  0  0  0  0  0  0  0
   -1.0963    1.8604    0.0844 H   0  0  0  0  0  0  0  0  0  0  0  0
   -1.5048   -1.8429    0.1572 H   0  0  0  0  0  0  0  0  0  0  0  0
   -3.7824   -2.0632   -0.5067 H   0  0  0  0  0  0  0  0  0  0  0  0
   -4.7059   -0.6777   -1.1358 H   0  0  0  0  0  0  0  0  0  0  0  0
   -3.5118   -1.4281   -2.2233 H   0  0  0  0  0  0  0  0  0  0  0  0
  1  2  1  0
  1 11  1  0
  1 12  1  0
  1 13  1  0
  2  3  1  0
  2 14  1  0
  3  4  2  0
  3  5  1  0
  5  6  2  3
  5  7  1  0
  6 15  1  0
  6 16  1  0
  7  8  1  0
  7 17  1  0
  8  9  1  0
  8 10  2  0
  9 18  1  0
  9 19  1  0
  9 20  1  0
M  END

> <RosettaParamsInstructions>
M  ROOT 7
M  POLY_N_BB 7
M  POLY_CA_BB 5
M  POLY_C_BB 3
M  POLY_O_BB 4
M  POLY_IGNORE 1 10 9 14 11 12 13 18 19 20
M  POLY_UPPER 2
M  POLY_LOWER 8
M  POLY_CHG 0
M  POLY_PROPERTIES PROTEIN POLYMER ALPHA_AA ALIPHATIC
M  END

$$$$
DHA_new
     RDKit          3D

 20 19  0  0  0  0  0  0  0  0999 V2000
    2.6330   -1.0930    2.5855 C   0  0  0  0  0  0  0  0  0  0  0  0
    1.6934   -0.2275    1.8393 N   0  0  0  0  0  0  0  0  0  0  0  0
    0.5501   -0.8292    1.3133 C   0  0  0  0  0  0  0  0  0  0  0  0
    0.3508   -2.0769    1.4855 O   0  0  0  0  0  0  0  0  0  0  0  0
   -0.4459   -0.0523    0.5548 C   0  0  0  0  0  0  0  0  0  0  0  0
   -0.2314    1.2273    0.3841 C   0  0  0  0  0  0  0  0  0  0  0  0
   -1.5799   -0.7545    0.0574 N   0  0  0  0  0  0  0  0  0  0  0  0
   -2.6440   -0.2430   -0.6794 C   0  0  0  0  0  0  0  0  0  0  0  0
   -3.7628   -1.1500   -1.1206 C   0  0  0  0  0  0  0  0  0  0  0  0
   -2.7511    0.9518   -1.0175 O   0  0  0  0  0  0  0  0  0  0  0  0
    2.2739   -2.1221    2.6028 H   0  0  0  0  0  0  0  0  0  0  0  0
    2.7356   -0.6591    3.6115 H   0  0  0  0  0  0  0  0  0  0  0  0
    3.6044   -0.9669    2.0828 H   0  0  0  0  0  0  0  0  0  0  0  0
    1.9440    0.7573    1.7577 H   0  0  0  0  0  0  0  0  0  0  0  0
   -0.9370    1.8654   -0.1736 H   0  0  0  0  0  0  0  0  0  0  0  0
    0.6411    1.6936    0.7840 H   0  0  0  0  0  0  0  0  0  0  0  0
   -1.6019   -1.8009    0.2861 H   0  0  0  0  0  0  0  0  0  0  0  0
   -3.3164   -2.1679   -1.2857 H   0  0  0  0  0  0  0  0  0  0  0  0
   -4.5052   -1.2517   -0.3070 H   0  0  0  0  0  0  0  0  0  0  0  0
   -4.2571   -0.7527   -2.0202 H   0  0  0  0  0  0  0  0  0  0  0  0
  1  2  1  0
  1 11  1  0
  1 12  1  0
  1 13  1  0
  2  3  1  0
  2 14  1  0
  3  4  2  0
  3  5  1  0
  5  6  2  3
  5  7  1  0
  6 15  1  0
  6 16  1  0
  7  8  1  0
  7 17  1  0
  8  9  1  0
  8 10  2  0
  9 18  1  0
  9 19  1  0
  9 20  1  0
M  END

> <RosettaParamsInstructions>
M  ROOT 7
M  POLY_N_BB 7
M  POLY_CA_BB 5
M  POLY_C_BB 3
M  POLY_O_BB 4
M  POLY_IGNORE 1 10 9 14 11 12 13 18 19 20
M  POLY_UPPER 2
M  POLY_LOWER 8
M  POLY_CHG 0
M  POLY_PROPERTIES PROTEIN POLYMER ALPHA_AA ALIPHATIC
M  END

$$$$
DHA_new
     RDKit          3D

 20 19  0  0  0  0  0  0  0  0999 V2000
    2.6293   -1.0355    2.6790 C   0  0  0  0  0  0  0  0  0  0  0  0
    1.6812   -0.2499    1.8894 N   0  0  0  0  0  0  0  0  0  0  0  0
    0.5267   -0.8223    1.3446 C   0  0  0  0  0  0  0  0  0  0  0  0
    0.3110   -2.0567    1.5500 O   0  0  0  0  0  0  0  0  0  0  0  0
   -0.4619   -0.0668    0.5386 C   0  0  0  0  0  0  0  0  0  0  0  0
   -0.2622    1.2066    0.3128 C   0  0  0  0  0  0  0  0  0  0  0  0
   -1.5840   -0.7764    0.0509 N   0  0  0  0  0  0  0  0  0  0  0  0
   -2.6118   -0.2464   -0.7175 C   0  0  0  0  0  0  0  0  0  0  0  0
   -3.7489   -1.1610   -1.1586 C   0  0  0  0  0  0  0  0  0  0  0  0
   -2.6907    0.9410   -1.0890 O   0  0  0  0  0  0  0  0  0  0  0  0
    2.1173   -1.8656    3.1897 H   0  0  0  0  0  0  0  0  0  0  0  0
    3.1371   -0.4314    3.4368 H   0  0  0  0  0  0  0  0  0  0  0  0
    3.3729   -1.4385    1.9335 H   0  0  0  0  0  0  0  0  0  0  0  0
    1.9185    0.7374    1.7645 H   0  0  0  0  0  0  0  0  0  0  0  0
   -0.9095    1.8485   -0.2550 H   0  0  0  0  0  0  0  0  0  0  0  0
    0.6240    1.6827    0.7209 H   0  0  0  0  0  0  0  0  0  0  0  0
   -1.6103   -1.8059    0.3154 H   0  0  0  0  0  0  0  0  0  0  0  0
   -4.0882   -0.8135   -2.1606 H   0  0  0  0  0  0  0  0  0  0  0  0
   -3.3739   -2.1971   -1.1790 H   0  0  0  0  0  0  0  0  0  0  0  0
   -4.5830   -1.1015   -0.4256 H   0  0  0  0  0  0  0  0  0  0  0  0
  1  2  1  0
  1 11  1  0
  1 12  1  0
  1 13  1  0
  2  3  1  0
  2 14  1  0
  3  4  2  0
  3  5  1  0
  5  6  2  3
  5  7  1  0
  6 15  1  0
  6 16  1  0
  7  8  1  0
  7 17  1  0
  8  9  1  0
  8 10  2  0
  9 18  1  0
  9 19  1  0
  9 20  1  0
M  END

> <RosettaParamsInstructions>
M  ROOT 7
M  POLY_N_BB 7
M  POLY_CA_BB 5
M  POLY_C_BB 3
M  POLY_O_BB 4
M  POLY_IGNORE 1 10 9 14 11 12 13 18 19 20
M  POLY_UPPER 2
M  POLY_LOWER 8
M  POLY_CHG 0
M  POLY_PROPERTIES PROTEIN POLYMER ALPHA_AA ALIPHATIC
M  END

$$$$
DHA_new
     RDKit          3D

 20 19  0  0  0  0  0  0  0  0999 V2000
    2.6606   -1.0236    2.5832 C   0  0  0  0  0  0  0  0  0  0  0  0
    1.7007   -0.2198    1.8099 N   0  0  0  0  0  0  0  0  0  0  0  0
    0.5505   -0.8322    1.3264 C   0  0  0  0  0  0  0  0  0  0  0  0
    0.3358   -2.0434    1.5448 O   0  0  0  0  0  0  0  0  0  0  0  0
   -0.4691   -0.1002    0.5393 C   0  0  0  0  0  0  0  0  0  0  0  0
   -0.2446    1.1703    0.3099 C   0  0  0  0  0  0  0  0  0  0  0  0
   -1.6158   -0.8136    0.0861 N   0  0  0  0  0  0  0  0  0  0  0  0
   -2.6475   -0.2530   -0.6599 C   0  0  0  0  0  0  0  0  0  0  0  0
   -3.8094   -1.1516   -1.0696 C   0  0  0  0  0  0  0  0  0  0  0  0
   -2.6857    0.9429   -1.0181 O   0  0  0  0  0  0  0  0  0  0  0  0
    3.3409   -1.5494    1.8837 H   0  0  0  0  0  0  0  0  0  0  0  0
    2.0796   -1.7880    3.1563 H   0  0  0  0  0  0  0  0  0  0  0  0
    3.2580   -0.4211    3.2645 H   0  0  0  0  0  0  0  0  0  0  0  0
    1.9918    0.7774    1.6953 H   0  0  0  0  0  0  0  0  0  0  0  0
   -0.8927    1.8127   -0.2403 H   0  0  0  0  0  0  0  0  0  0  0  0
    0.6554    1.6410    0.6905 H   0  0  0  0  0  0  0  0  0  0  0  0
   -1.6555   -1.8392    0.3520 H   0  0  0  0  0  0  0  0  0  0  0  0
   -4.6101   -0.9740   -0.3491 H   0  0  0  0  0  0  0  0  0  0  0  0
   -3.4557   -2.1818   -1.0808 H   0  0  0  0  0  0  0  0  0  0  0  0
   -4.0938   -0.8056   -2.0831 H   0  0  0  0  0  0  0  0  0  0  0  0
  1  2  1  0
  1 11  1  0
  1 12  1  0
  1 13  1  0
  2  3  1  0
  2 14  1  0
  3  4  2  0
  3  5  1  0
  5  6  2  3
  5  7  1  0
  6 15  1  0
  6 16  1  0
  7  8  1  0
  7 17  1  0
  8  9  1  0
  8 10  2  0
  9 18  1  0
  9 19  1  0
  9 20  1  0
M  END

> <RosettaParamsInstructions>
M  ROOT 7
M  POLY_N_BB 7
M  POLY_CA_BB 5
M  POLY_C_BB 3
M  POLY_O_BB 4
M  POLY_IGNORE 1 10 9 14 11 12 13 18 19 20
M  POLY_UPPER 2
M  POLY_LOWER 8
M  POLY_CHG 0
M  POLY_PROPERTIES PROTEIN POLYMER ALPHA_AA ALIPHATIC
M  END

$$$$
DHA_new
     RDKit          3D

 20 19  0  0  0  0  0  0  0  0999 V2000
    2.6261   -1.0960    2.5577 C   0  0  0  0  0  0  0  0  0  0  0  0
    1.6734   -0.2267    1.8567 N   0  0  0  0  0  0  0  0  0  0  0  0
    0.5458   -0.8156    1.2905 C   0  0  0  0  0  0  0  0  0  0  0  0
    0.3848   -2.0878    1.4032 O   0  0  0  0  0  0  0  0  0  0  0  0
   -0.4671   -0.0369    0.5690 C   0  0  0  0  0  0  0  0  0  0  0  0
   -0.3308    1.2462    0.4400 C   0  0  0  0  0  0  0  0  0  0  0  0
   -1.5500   -0.7616    0.0511 N   0  0  0  0  0  0  0  0  0  0  0  0
   -2.6089   -0.2124   -0.6601 C   0  0  0  0  0  0  0  0  0  0  0  0
   -3.6932   -1.1643   -1.1418 C   0  0  0  0  0  0  0  0  0  0  0  0
   -2.8059    0.9841   -0.9706 O   0  0  0  0  0  0  0  0  0  0  0  0
    3.3789   -1.4133    1.8189 H   0  0  0  0  0  0  0  0  0  0  0  0
    3.1328   -0.4886    3.3235 H   0  0  0  0  0  0  0  0  0  0  0  0
    2.0883   -1.9527    3.0325 H   0  0  0  0  0  0  0  0  0  0  0  0
    1.8766    0.7912    1.8103 H   0  0  0  0  0  0  0  0  0  0  0  0
   -1.0496    1.8624   -0.0824 H   0  0  0  0  0  0  0  0  0  0  0  0
    0.5424    1.7400    0.8723 H   0  0  0  0  0  0  0  0  0  0  0  0
   -1.5793   -1.8118    0.2050 H   0  0  0  0  0  0  0  0  0  0  0  0
   -3.3115   -1.6337   -2.0595 H   0  0  0  0  0  0  0  0  0  0  0  0
   -4.6498   -0.6523   -1.2382 H   0  0  0  0  0  0  0  0  0  0  0  0
   -3.8094   -1.9226   -0.3373 H   0  0  0  0  0  0  0  0  0  0  0  0
  1  2  1  0
  1 11  1  0
  1 12  1  0
  1 13  1  0
  2  3  1  0
  2 14  1  0
  3  4  2  0
  3  5  1  0
  5  6  2  3
  5  7  1  0
  6 15  1  0
  6 16  1  0
  7  8  1  0
  7 17  1  0
  8  9  1  0
  8 10  2  0
  9 18  1  0
  9 19  1  0
  9 20  1  0
M  END

> <RosettaParamsInstructions>
M  ROOT 7
M  POLY_N_BB 7
M  POLY_CA_BB 5
M  POLY_C_BB 3
M  POLY_O_BB 4
M  POLY_IGNORE 1 10 9 14 11 12 13 18 19 20
M  POLY_UPPER 2
M  POLY_LOWER 8
M  POLY_CHG 0
M  POLY_PROPERTIES PROTEIN POLYMER ALPHA_AA ALIPHATIC
M  END

$$$$
DHA_new
     RDKit          3D

 20 19  0  0  0  0  0  0  0  0999 V2000
    2.6777   -1.0471    2.5752 C   0  0  0  0  0  0  0  0  0  0  0  0
    1.6814   -0.2197    1.9255 N   0  0  0  0  0  0  0  0  0  0  0  0
    0.5893   -0.8198    1.3051 C   0  0  0  0  0  0  0  0  0  0  0  0
    0.4795   -2.0953    1.3168 O   0  0  0  0  0  0  0  0  0  0  0  0
   -0.4730   -0.0684    0.6203 C   0  0  0  0  0  0  0  0  0  0  0  0
   -0.3807    1.2376    0.5962 C   0  0  0  0  0  0  0  0  0  0  0  0
   -1.5459   -0.7596    0.0170 N   0  0  0  0  0  0  0  0  0  0  0  0
   -2.6435   -0.2586   -0.6739 C   0  0  0  0  0  0  0  0  0  0  0  0
   -3.7023   -1.1678   -1.2554 C   0  0  0  0  0  0  0  0  0  0  0  0
   -2.8454    0.9571   -0.8694 O   0  0  0  0  0  0  0  0  0  0  0  0
    3.1353   -0.5080    3.4049 H   0  0  0  0  0  0  0  0  0  0  0  0
    3.4582   -1.2990    1.8285 H   0  0  0  0  0  0  0  0  0  0  0  0
    2.1632   -1.9895    2.9093 H   0  0  0  0  0  0  0  0  0  0  0  0
    1.8393    0.7947    1.9583 H   0  0  0  0  0  0  0  0  0  0  0  0
    0.4541    1.7797    1.0654 H   0  0  0  0  0  0  0  0  0  0  0  0
   -1.1082    1.8597    0.1208 H   0  0  0  0  0  0  0  0  0  0  0  0
   -1.4840   -1.8302    0.1195 H   0  0  0  0  0  0  0  0  0  0  0  0
   -3.2825   -2.1740   -1.4650 H   0  0  0  0  0  0  0  0  0  0  0  0
   -4.0770   -0.7396   -2.2064 H   0  0  0  0  0  0  0  0  0  0  0  0
   -4.5417   -1.3043   -0.5520 H   0  0  0  0  0  0  0  0  0  0  0  0
  1  2  1  0
  1 11  1  0
  1 12  1  0
  1 13  1  0
  2  3  1  0
  2 14  1  0
  3  4  2  0
  3  5  1  0
  5  6  2  3
  5  7  1  0
  6 15  1  0
  6 16  1  0
  7  8  1  0
  7 17  1  0
  8  9  1  0
  8 10  2  0
  9 18  1  0
  9 19  1  0
  9 20  1  0
M  END

> <RosettaParamsInstructions>
M  ROOT 7
M  POLY_N_BB 7
M  POLY_CA_BB 5
M  POLY_C_BB 3
M  POLY_O_BB 4
M  POLY_IGNORE 1 10 9 14 11 12 13 18 19 20
M  POLY_UPPER 2
M  POLY_LOWER 8
M  POLY_CHG 0
M  POLY_PROPERTIES PROTEIN POLYMER ALPHA_AA ALIPHATIC
M  END

$$$$
DHA_new
     RDKit          3D

 20 19  0  0  0  0  0  0  0  0999 V2000
    2.6796   -1.0525    2.5819 C   0  0  0  0  0  0  0  0  0  0  0  0
    1.6875   -0.2362    1.8624 N   0  0  0  0  0  0  0  0  0  0  0  0
    0.5689   -0.8364    1.3124 C   0  0  0  0  0  0  0  0  0  0  0  0
    0.4074   -2.0985    1.4349 O   0  0  0  0  0  0  0  0  0  0  0  0
   -0.4805   -0.1069    0.5744 C   0  0  0  0  0  0  0  0  0  0  0  0
   -0.3267    1.1870    0.4420 C   0  0  0  0  0  0  0  0  0  0  0  0
   -1.5776   -0.8052    0.0538 N   0  0  0  0  0  0  0  0  0  0  0  0
   -2.6364   -0.2752   -0.6554 C   0  0  0  0  0  0  0  0  0  0  0  0
   -3.7686   -1.1505   -1.1660 C   0  0  0  0  0  0  0  0  0  0  0  0
   -2.7174    0.9493   -0.9129 O   0  0  0  0  0  0  0  0  0  0  0  0
    3.5689   -1.2252    1.9498 H   0  0  0  0  0  0  0  0  0  0  0  0
    3.0121   -0.4606    3.4665 H   0  0  0  0  0  0  0  0  0  0  0  0
    2.1914   -1.9882    2.8533 H   0  0  0  0  0  0  0  0  0  0  0  0
    1.9119    0.7728    1.8193 H   0  0  0  0  0  0  0  0  0  0  0  0
    0.5520    1.7039    0.8663 H   0  0  0  0  0  0  0  0  0  0  0  0
   -0.9997    1.8415   -0.0633 H   0  0  0  0  0  0  0  0  0  0  0  0
   -1.5986   -1.8587    0.2225 H   0  0  0  0  0  0  0  0  0  0  0  0
   -4.6953   -0.6300   -0.9241 H   0  0  0  0  0  0  0  0  0  0  0  0
   -3.6994   -2.1416   -0.7168 H   0  0  0  0  0  0  0  0  0  0  0  0
   -3.6859   -1.2410   -2.2601 H   0  0  0  0  0  0  0  0  0  0  0  0
  1  2  1  0
  1 11  1  0
  1 12  1  0
  1 13  1  0
  2  3  1  0
  2 14  1  0
  3  4  2  0
  3  5  1  0
  5  6  2  3
  5  7  1  0
  6 15  1  0
  6 16  1  0
  7  8  1  0
  7 17  1  0
  8  9  1  0
  8 10  2  0
  9 18  1  0
  9 19  1  0
  9 20  1  0
M  END

> <RosettaParamsInstructions>
M  ROOT 7
M  POLY_N_BB 7
M  POLY_CA_BB 5
M  POLY_C_BB 3
M  POLY_O_BB 4
M  POLY_IGNORE 1 10 9 14 11 12 13 18 19 20
M  POLY_UPPER 2
M  POLY_LOWER 8
M  POLY_CHG 0
M  POLY_PROPERTIES PROTEIN POLYMER ALPHA_AA ALIPHATIC
M  END

$$$$
DHA_new
     RDKit          3D

 20 19  0  0  0  0  0  0  0  0999 V2000
    2.6315   -1.0573    2.6349 C   0  0  0  0  0  0  0  0  0  0  0  0
    1.6611   -0.2461    1.8974 N   0  0  0  0  0  0  0  0  0  0  0  0
    0.5393   -0.8296    1.3100 C   0  0  0  0  0  0  0  0  0  0  0  0
    0.4002   -2.0910    1.4445 O   0  0  0  0  0  0  0  0  0  0  0  0
   -0.4530   -0.0823    0.5702 C   0  0  0  0  0  0  0  0  0  0  0  0
   -0.3451    1.2049    0.4120 C   0  0  0  0  0  0  0  0  0  0  0  0
   -1.5390   -0.8015    0.0284 N   0  0  0  0  0  0  0  0  0  0  0  0
   -2.5776   -0.2226   -0.7106 C   0  0  0  0  0  0  0  0  0  0  0  0
   -3.6597   -1.1664   -1.2109 C   0  0  0  0  0  0  0  0  0  0  0  0
   -2.7418    0.9655   -1.0187 O   0  0  0  0  0  0  0  0  0  0  0  0
    2.2328   -1.1082    3.6794 H   0  0  0  0  0  0  0  0  0  0  0  0
    3.6148   -0.5495    2.6767 H   0  0  0  0  0  0  0  0  0  0  0  0
    2.6533   -2.0593    2.2084 H   0  0  0  0  0  0  0  0  0  0  0  0
    1.8466    0.7712    1.8339 H   0  0  0  0  0  0  0  0  0  0  0  0
    0.5210    1.7370    0.8513 H   0  0  0  0  0  0  0  0  0  0  0  0
   -1.0071    1.8757   -0.1116 H   0  0  0  0  0  0  0  0  0  0  0  0
   -1.5699   -1.8549    0.1930 H   0  0  0  0  0  0  0  0  0  0  0  0
   -3.4609   -1.3840   -2.2635 H   0  0  0  0  0  0  0  0  0  0  0  0
   -3.6880   -2.0771   -0.5883 H   0  0  0  0  0  0  0  0  0  0  0  0
   -4.6650   -0.6766   -1.0954 H   0  0  0  0  0  0  0  0  0  0  0  0
  1  2  1  0
  1 11  1  0
  1 12  1  0
  1 13  1  0
  2  3  1  0
  2 14  1  0
  3  4  2  0
  3  5  1  0
  5  6  2  3
  5  7  1  0
  6 15  1  0
  6 16  1  0
  7  8  1  0
  7 17  1  0
  8  9  1  0
  8 10  2  0
  9 18  1  0
  9 19  1  0
  9 20  1  0
M  END

> <RosettaParamsInstructions>
M  ROOT 7
M  POLY_N_BB 7
M  POLY_CA_BB 5
M  POLY_C_BB 3
M  POLY_O_BB 4
M  POLY_IGNORE 1 10 9 14 11 12 13 18 19 20
M  POLY_UPPER 2
M  POLY_LOWER 8
M  POLY_CHG 0
M  POLY_PROPERTIES PROTEIN POLYMER ALPHA_AA ALIPHATIC
M  END

$$$$
DHA_new
     RDKit          3D

 20 19  0  0  0  0  0  0  0  0999 V2000
    2.6652   -1.0420    2.5539 C   0  0  0  0  0  0  0  0  0  0  0  0
    1.6618   -0.1792    1.8985 N   0  0  0  0  0  0  0  0  0  0  0  0
    0.5716   -0.8102    1.2886 C   0  0  0  0  0  0  0  0  0  0  0  0
    0.4578   -2.0702    1.3026 O   0  0  0  0  0  0  0  0  0  0  0  0
   -0.4768   -0.0580    0.6135 C   0  0  0  0  0  0  0  0  0  0  0  0
   -0.3799    1.2528    0.5860 C   0  0  0  0  0  0  0  0  0  0  0  0
   -1.5493   -0.7921    0.0208 N   0  0  0  0  0  0  0  0  0  0  0  0
   -2.6360   -0.2820   -0.6613 C   0  0  0  0  0  0  0  0  0  0  0  0
   -3.6922   -1.1808   -1.2335 C   0  0  0  0  0  0  0  0  0  0  0  0
   -2.7971    0.9450   -0.8374 O   0  0  0  0  0  0  0  0  0  0  0  0
    3.1143   -0.5451    3.4198 H   0  0  0  0  0  0  0  0  0  0  0  0
    3.3978   -1.3722    1.7947 H   0  0  0  0  0  0  0  0  0  0  0  0
    2.1520   -1.9538    2.9181 H   0  0  0  0  0  0  0  0  0  0  0  0
    1.8788    0.8285    1.9625 H   0  0  0  0  0  0  0  0  0  0  0  0
    0.4584    1.7535    1.0540 H   0  0  0  0  0  0  0  0  0  0  0  0
   -1.0830    1.9258    0.1223 H   0  0  0  0  0  0  0  0  0  0  0  0
   -1.5185   -1.8648    0.1091 H   0  0  0  0  0  0  0  0  0  0  0  0
   -4.6425   -0.6250   -1.3902 H   0  0  0  0  0  0  0  0  0  0  0  0
   -3.3757   -1.5375   -2.2288 H   0  0  0  0  0  0  0  0  0  0  0  0
   -3.8131   -2.0451   -0.5525 H   0  0  0  0  0  0  0  0  0  0  0  0
  1  2  1  0
  1 11  1  0
  1 12  1  0
  1 13  1  0
  2  3  1  0
  2 14  1  0
  3  4  2  0
  3  5  1  0
  5  6  2  3
  5  7  1  0
  6 15  1  0
  6 16  1  0
  7  8  1  0
  7 17  1  0
  8  9  1  0
  8 10  2  0
  9 18  1  0
  9 19  1  0
  9 20  1  0
M  END

> <RosettaParamsInstructions>
M  ROOT 7
M  POLY_N_BB 7
M  POLY_CA_BB 5
M  POLY_C_BB 3
M  POLY_O_BB 4
M  POLY_IGNORE 1 10 9 14 11 12 13 18 19 20
M  POLY_UPPER 2
M  POLY_LOWER 8
M  POLY_CHG 0
M  POLY_PROPERTIES PROTEIN POLYMER ALPHA_AA ALIPHATIC
M  END

$$$$
DHA_new
     RDKit          3D

 20 19  0  0  0  0  0  0  0  0999 V2000
    2.6782   -1.0533    2.5945 C   0  0  0  0  0  0  0  0  0  0  0  0
    1.7173   -0.2219    1.8868 N   0  0  0  0  0  0  0  0  0  0  0  0
    0.5709   -0.7938    1.3138 C   0  0  0  0  0  0  0  0  0  0  0  0
    0.4257   -2.0638    1.4490 O   0  0  0  0  0  0  0  0  0  0  0  0
   -0.4699   -0.0605    0.5763 C   0  0  0  0  0  0  0  0  0  0  0  0
   -0.3291    1.2332    0.4344 C   0  0  0  0  0  0  0  0  0  0  0  0
   -1.5735   -0.7426    0.0476 N   0  0  0  0  0  0  0  0  0  0  0  0
   -2.6598   -0.2472   -0.6752 C   0  0  0  0  0  0  0  0  0  0  0  0
   -3.7662   -1.1601   -1.1654 C   0  0  0  0  0  0  0  0  0  0  0  0
   -2.8125    0.9435   -0.9712 O   0  0  0  0  0  0  0  0  0  0  0  0
    3.6749   -0.5842    2.6708 H   0  0  0  0  0  0  0  0  0  0  0  0
    2.3332   -1.2851    3.6017 H   0  0  0  0  0  0  0  0  0  0  0  0
    2.7785   -1.9896    2.0111 H   0  0  0  0  0  0  0  0  0  0  0  0
    1.9453    0.7840    1.8459 H   0  0  0  0  0  0  0  0  0  0  0  0
   -1.0163    1.8951   -0.0834 H   0  0  0  0  0  0  0  0  0  0  0  0
    0.5513    1.7090    0.8680 H   0  0  0  0  0  0  0  0  0  0  0  0
   -1.5692   -1.8040    0.2343 H   0  0  0  0  0  0  0  0  0  0  0  0
   -3.7964   -2.0824   -0.5330 H   0  0  0  0  0  0  0  0  0  0  0  0
   -3.5557   -1.5063   -2.1984 H   0  0  0  0  0  0  0  0  0  0  0  0
   -4.7333   -0.6223   -1.1667 H   0  0  0  0  0  0  0  0  0  0  0  0
  1  2  1  0
  1 11  1  0
  1 12  1  0
  1 13  1  0
  2  3  1  0
  2 14  1  0
  3  4  2  0
  3  5  1  0
  5  6  2  3
  5  7  1  0
  6 15  1  0
  6 16  1  0
  7  8  1  0
  7 17  1  0
  8  9  1  0
  8 10  2  0
  9 18  1  0
  9 19  1  0
  9 20  1  0
M  END

> <RosettaParamsInstructions>
M  ROOT 7
M  POLY_N_BB 7
M  POLY_CA_BB 5
M  POLY_C_BB 3
M  POLY_O_BB 4
M  POLY_IGNORE 1 10 9 14 11 12 13 18 19 20
M  POLY_UPPER 2
M  POLY_LOWER 8
M  POLY_CHG 0
M  POLY_PROPERTIES PROTEIN POLYMER ALPHA_AA ALIPHATIC
M  END

$$$$
DHA_new
     RDKit          3D

 20 19  0  0  0  0  0  0  0  0999 V2000
    2.6572   -1.0796    2.5707 C   0  0  0  0  0  0  0  0  0  0  0  0
    1.6587   -0.2714    1.8540 N   0  0  0  0  0  0  0  0  0  0  0  0
    0.5292   -0.8415    1.2885 C   0  0  0  0  0  0  0  0  0  0  0  0
    0.3606   -2.0795    1.3945 O   0  0  0  0  0  0  0  0  0  0  0  0
   -0.4588   -0.0588    0.5821 C   0  0  0  0  0  0  0  0  0  0  0  0
   -0.3229    1.2305    0.4485 C   0  0  0  0  0  0  0  0  0  0  0  0
   -1.5815   -0.7682    0.0437 N   0  0  0  0  0  0  0  0  0  0  0  0
   -2.6577   -0.2446   -0.6712 C   0  0  0  0  0  0  0  0  0  0  0  0
   -3.7253   -1.2032   -1.1362 C   0  0  0  0  0  0  0  0  0  0  0  0
   -2.7684    0.9660   -0.9358 O   0  0  0  0  0  0  0  0  0  0  0  0
    3.6839   -0.7849    2.2049 H   0  0  0  0  0  0  0  0  0  0  0  0
    2.6320   -0.7826    3.6393 H   0  0  0  0  0  0  0  0  0  0  0  0
    2.4744   -2.1645    2.4258 H   0  0  0  0  0  0  0  0  0  0  0  0
    1.8619    0.7311    1.8071 H   0  0  0  0  0  0  0  0  0  0  0  0
   -0.9983    1.9058   -0.0575 H   0  0  0  0  0  0  0  0  0  0  0  0
    0.5488    1.7657    0.8692 H   0  0  0  0  0  0  0  0  0  0  0  0
   -1.6083   -1.8229    0.2022 H   0  0  0  0  0  0  0  0  0  0  0  0
   -4.5367   -1.1716   -0.4040 H   0  0  0  0  0  0  0  0  0  0  0  0
   -3.2675   -2.1872   -1.2866 H   0  0  0  0  0  0  0  0  0  0  0  0
   -4.0877   -0.7908   -2.0983 H   0  0  0  0  0  0  0  0  0  0  0  0
  1  2  1  0
  1 11  1  0
  1 12  1  0
  1 13  1  0
  2  3  1  0
  2 14  1  0
  3  4  2  0
  3  5  1  0
  5  6  2  3
  5  7  1  0
  6 15  1  0
  6 16  1  0
  7  8  1  0
  7 17  1  0
  8  9  1  0
  8 10  2  0
  9 18  1  0
  9 19  1  0
  9 20  1  0
M  END

> <RosettaParamsInstructions>
M  ROOT 7
M  POLY_N_BB 7
M  POLY_CA_BB 5
M  POLY_C_BB 3
M  POLY_O_BB 4
M  POLY_IGNORE 1 10 9 14 11 12 13 18 19 20
M  POLY_UPPER 2
M  POLY_LOWER 8
M  POLY_CHG 0
M  POLY_PROPERTIES PROTEIN POLYMER ALPHA_AA ALIPHATIC
M  END

$$$$
DHA_new
     RDKit          3D

 20 19  0  0  0  0  0  0  0  0999 V2000
    2.7092   -1.0896    2.4822 C   0  0  0  0  0  0  0  0  0  0  0  0
    1.7030   -0.2074    1.8575 N   0  0  0  0  0  0  0  0  0  0  0  0
    0.5888   -0.8144    1.2665 C   0  0  0  0  0  0  0  0  0  0  0  0
    0.5008   -2.0795    1.2972 O   0  0  0  0  0  0  0  0  0  0  0  0
   -0.4897   -0.0320    0.6072 C   0  0  0  0  0  0  0  0  0  0  0  0
   -0.3580    1.2641    0.5992 C   0  0  0  0  0  0  0  0  0  0  0  0
   -1.5785   -0.7473    0.0375 N   0  0  0  0  0  0  0  0  0  0  0  0
   -2.6923   -0.2284   -0.6250 C   0  0  0  0  0  0  0  0  0  0  0  0
   -3.7439   -1.1660   -1.1596 C   0  0  0  0  0  0  0  0  0  0  0  0
   -2.8996    0.9865   -0.8195 O   0  0  0  0  0  0  0  0  0  0  0  0
    3.7200   -0.6687    2.3192 H   0  0  0  0  0  0  0  0  0  0  0  0
    2.4892   -1.1401    3.5615 H   0  0  0  0  0  0  0  0  0  0  0  0
    2.6475   -2.0897    2.0209 H   0  0  0  0  0  0  0  0  0  0  0  0
    1.9068    0.8191    1.9074 H   0  0  0  0  0  0  0  0  0  0  0  0
    0.4742    1.7821    1.0364 H   0  0  0  0  0  0  0  0  0  0  0  0
   -1.1039    1.8860    0.1381 H   0  0  0  0  0  0  0  0  0  0  0  0
   -1.5182   -1.8134    0.1394 H   0  0  0  0  0  0  0  0  0  0  0  0
   -4.1320   -1.8161   -0.3554 H   0  0  0  0  0  0  0  0  0  0  0  0
   -4.5515   -0.6331   -1.6587 H   0  0  0  0  0  0  0  0  0  0  0  0
   -3.2782   -1.8641   -1.9112 H   0  0  0  0  0  0  0  0  0  0  0  0
  1  2  1  0
  1 11  1  0
  1 12  1  0
  1 13  1  0
  2  3  1  0
  2 14  1  0
  3  4  2  0
  3  5  1  0
  5  6  2  3
  5  7  1  0
  6 15  1  0
  6 16  1  0
  7  8  1  0
  7 17  1  0
  8  9  1  0
  8 10  2  0
  9 18  1  0
  9 19  1  0
  9 20  1  0
M  END

> <RosettaParamsInstructions>
M  ROOT 7
M  POLY_N_BB 7
M  POLY_CA_BB 5
M  POLY_C_BB 3
M  POLY_O_BB 4
M  POLY_IGNORE 1 10 9 14 11 12 13 18 19 20
M  POLY_UPPER 2
M  POLY_LOWER 8
M  POLY_CHG 0
M  POLY_PROPERTIES PROTEIN POLYMER ALPHA_AA ALIPHATIC
M  END

$$$$
DHA_new
     RDKit          3D

 20 19  0  0  0  0  0  0  0  0999 V2000
    2.6451   -1.0830    2.5679 C   0  0  0  0  0  0  0  0  0  0  0  0
    1.6644   -0.1896    1.9032 N   0  0  0  0  0  0  0  0  0  0  0  0
    0.5739   -0.8220    1.3029 C   0  0  0  0  0  0  0  0  0  0  0  0
    0.4571   -2.0884    1.3411 O   0  0  0  0  0  0  0  0  0  0  0  0
   -0.4898   -0.0551    0.5992 C   0  0  0  0  0  0  0  0  0  0  0  0
   -0.3672    1.2458    0.5616 C   0  0  0  0  0  0  0  0  0  0  0  0
   -1.5619   -0.7956    0.0191 N   0  0  0  0  0  0  0  0  0  0  0  0
   -2.6357   -0.2625   -0.6708 C   0  0  0  0  0  0  0  0  0  0  0  0
   -3.6921   -1.1986   -1.2247 C   0  0  0  0  0  0  0  0  0  0  0  0
   -2.7660    0.9718   -0.8545 O   0  0  0  0  0  0  0  0  0  0  0  0
    3.2517   -0.4632    3.2480 H   0  0  0  0  0  0  0  0  0  0  0  0
    3.3228   -1.4482    1.7649 H   0  0  0  0  0  0  0  0  0  0  0  0
    2.1382   -1.8792    3.1182 H   0  0  0  0  0  0  0  0  0  0  0  0
    1.8171    0.8220    1.9083 H   0  0  0  0  0  0  0  0  0  0  0  0
   -1.0740    1.8938    0.0821 H   0  0  0  0  0  0  0  0  0  0  0  0
    0.4748    1.7269    1.0257 H   0  0  0  0  0  0  0  0  0  0  0  0
   -1.5298   -1.8584    0.1292 H   0  0  0  0  0  0  0  0  0  0  0  0
   -4.6305   -0.6318   -1.2153 H   0  0  0  0  0  0  0  0  0  0  0  0
   -3.7723   -2.1003   -0.6022 H   0  0  0  0  0  0  0  0  0  0  0  0
   -3.4324   -1.4367   -2.2631 H   0  0  0  0  0  0  0  0  0  0  0  0
  1  2  1  0
  1 11  1  0
  1 12  1  0
  1 13  1  0
  2  3  1  0
  2 14  1  0
  3  4  2  0
  3  5  1  0
  5  6  2  3
  5  7  1  0
  6 15  1  0
  6 16  1  0
  7  8  1  0
  7 17  1  0
  8  9  1  0
  8 10  2  0
  9 18  1  0
  9 19  1  0
  9 20  1  0
M  END

> <RosettaParamsInstructions>
M  ROOT 7
M  POLY_N_BB 7
M  POLY_CA_BB 5
M  POLY_C_BB 3
M  POLY_O_BB 4
M  POLY_IGNORE 1 10 9 14 11 12 13 18 19 20
M  POLY_UPPER 2
M  POLY_LOWER 8
M  POLY_CHG 0
M  POLY_PROPERTIES PROTEIN POLYMER ALPHA_AA ALIPHATIC
M  END

$$$$
DHA_new
     RDKit          3D

 20 19  0  0  0  0  0  0  0  0999 V2000
    2.6266   -1.0102    2.6788 C   0  0  0  0  0  0  0  0  0  0  0  0
    1.6703   -0.2256    1.8752 N   0  0  0  0  0  0  0  0  0  0  0  0
    0.5224   -0.8162    1.3453 C   0  0  0  0  0  0  0  0  0  0  0  0
    0.3356   -2.0518    1.5826 O   0  0  0  0  0  0  0  0  0  0  0  0
   -0.4484   -0.0697    0.5437 C   0  0  0  0  0  0  0  0  0  0  0  0
   -0.2552    1.1926    0.3028 C   0  0  0  0  0  0  0  0  0  0  0  0
   -1.5779   -0.8180    0.0698 N   0  0  0  0  0  0  0  0  0  0  0  0
   -2.5850   -0.2600   -0.7004 C   0  0  0  0  0  0  0  0  0  0  0  0
   -3.7248   -1.1414   -1.1428 C   0  0  0  0  0  0  0  0  0  0  0  0
   -2.6623    0.9220   -1.0829 O   0  0  0  0  0  0  0  0  0  0  0  0
    3.6651   -0.7088    2.4763 H   0  0  0  0  0  0  0  0  0  0  0  0
    2.3369   -0.9875    3.7322 H   0  0  0  0  0  0  0  0  0  0  0  0
    2.5227   -2.0550    2.2997 H   0  0  0  0  0  0  0  0  0  0  0  0
    1.8956    0.7675    1.7302 H   0  0  0  0  0  0  0  0  0  0  0  0
   -0.8959    1.8522   -0.2737 H   0  0  0  0  0  0  0  0  0  0  0  0
    0.6364    1.6796    0.7063 H   0  0  0  0  0  0  0  0  0  0  0  0
   -1.6312   -1.8422    0.3281 H   0  0  0  0  0  0  0  0  0  0  0  0
   -3.5773   -1.4246   -2.2003 H   0  0  0  0  0  0  0  0  0  0  0  0
   -3.7756   -2.0677   -0.5383 H   0  0  0  0  0  0  0  0  0  0  0  0
   -4.6845   -0.5876   -0.9915 H   0  0  0  0  0  0  0  0  0  0  0  0
  1  2  1  0
  1 11  1  0
  1 12  1  0
  1 13  1  0
  2  3  1  0
  2 14  1  0
  3  4  2  0
  3  5  1  0
  5  6  2  3
  5  7  1  0
  6 15  1  0
  6 16  1  0
  7  8  1  0
  7 17  1  0
  8  9  1  0
  8 10  2  0
  9 18  1  0
  9 19  1  0
  9 20  1  0
M  END

> <RosettaParamsInstructions>
M  ROOT 7
M  POLY_N_BB 7
M  POLY_CA_BB 5
M  POLY_C_BB 3
M  POLY_O_BB 4
M  POLY_IGNORE 1 10 9 14 11 12 13 18 19 20
M  POLY_UPPER 2
M  POLY_LOWER 8
M  POLY_CHG 0
M  POLY_PROPERTIES PROTEIN POLYMER ALPHA_AA ALIPHATIC
M  END

$$$$
DHA_new
     RDKit          3D

 20 19  0  0  0  0  0  0  0  0999 V2000
    2.2759   -1.5961    2.4286 C   0  0  0  0  0  0  0  0  0  0  0  0
    1.0918   -1.2557    1.6700 N   0  0  0  0  0  0  0  0  0  0  0  0
    0.8048    0.0798    1.3762 C   0  0  0  0  0  0  0  0  0  0  0  0
    1.6112    0.9726    1.7933 O   0  0  0  0  0  0  0  0  0  0  0  0
   -0.3829    0.5016    0.6096 C   0  0  0  0  0  0  0  0  0  0  0  0
   -0.5551    1.7742    0.3929 C   0  0  0  0  0  0  0  0  0  0  0  0
   -1.3151   -0.4483    0.1262 N   0  0  0  0  0  0  0  0  0  0  0  0
   -2.4879   -0.2018   -0.6086 C   0  0  0  0  0  0  0  0  0  0  0  0
   -3.3073   -1.4138   -0.9994 C   0  0  0  0  0  0  0  0  0  0  0  0
   -2.9294    0.9064   -0.9749 O   0  0  0  0  0  0  0  0  0  0  0  0
    2.0539   -1.5802    3.5267 H   0  0  0  0  0  0  0  0  0  0  0  0
    3.0725   -0.8814    2.1412 H   0  0  0  0  0  0  0  0  0  0  0  0
    2.6480   -2.6068    2.1494 H   0  0  0  0  0  0  0  0  0  0  0  0
    0.4863   -2.0469    1.3672 H   0  0  0  0  0  0  0  0  0  0  0  0
   -1.3644    2.2071   -0.1422 H   0  0  0  0  0  0  0  0  0  0  0  0
    0.1816    2.5007    0.7816 H   0  0  0  0  0  0  0  0  0  0  0  0
   -1.1210   -1.4755    0.3338 H   0  0  0  0  0  0  0  0  0  0  0  0
   -2.5567   -2.1581   -1.3430 H   0  0  0  0  0  0  0  0  0  0  0  0
   -3.8148   -1.8331   -0.1112 H   0  0  0  0  0  0  0  0  0  0  0  0
   -3.9977   -1.0969   -1.7767 H   0  0  0  0  0  0  0  0  0  0  0  0
  1  2  1  0
  1 11  1  0
  1 12  1  0
  1 13  1  0
  2  3  1  0
  2 14  1  0
  3  4  2  0
  3  5  1  0
  5  6  2  3
  5  7  1  0
  6 15  1  0
  6 16  1  0
  7  8  1  0
  7 17  1  0
  8  9  1  0
  8 10  2  0
  9 18  1  0
  9 19  1  0
  9 20  1  0
M  END

> <RosettaParamsInstructions>
M  ROOT 7
M  POLY_N_BB 7
M  POLY_CA_BB 5
M  POLY_C_BB 3
M  POLY_O_BB 4
M  POLY_IGNORE 1 10 9 14 11 12 13 18 19 20
M  POLY_UPPER 2
M  POLY_LOWER 8
M  POLY_CHG 0
M  POLY_PROPERTIES PROTEIN POLYMER ALPHA_AA ALIPHATIC
M  END

$$$$
DHA_new
     RDKit          3D

 20 19  0  0  0  0  0  0  0  0999 V2000
    2.6765   -1.0906    2.5856 C   0  0  0  0  0  0  0  0  0  0  0  0
    1.7062   -0.2468    1.8694 N   0  0  0  0  0  0  0  0  0  0  0  0
    0.5597   -0.7823    1.2928 C   0  0  0  0  0  0  0  0  0  0  0  0
    0.3846   -2.0386    1.4111 O   0  0  0  0  0  0  0  0  0  0  0  0
   -0.4548   -0.0307    0.5670 C   0  0  0  0  0  0  0  0  0  0  0  0
   -0.3223    1.2639    0.4169 C   0  0  0  0  0  0  0  0  0  0  0  0
   -1.5602   -0.7525    0.0470 N   0  0  0  0  0  0  0  0  0  0  0  0
   -2.6480   -0.2395   -0.6797 C   0  0  0  0  0  0  0  0  0  0  0  0
   -3.7268   -1.1956   -1.1428 C   0  0  0  0  0  0  0  0  0  0  0  0
   -2.7443    0.9734   -0.9493 O   0  0  0  0  0  0  0  0  0  0  0  0
    3.6238   -0.9980    2.0515 H   0  0  0  0  0  0  0  0  0  0  0  0
    2.7016   -0.7259    3.6206 H   0  0  0  0  0  0  0  0  0  0  0  0
    2.2733   -2.1213    2.6015 H   0  0  0  0  0  0  0  0  0  0  0  0
    1.9474    0.7473    1.8358 H   0  0  0  0  0  0  0  0  0  0  0  0
    0.5761    1.7375    0.8593 H   0  0  0  0  0  0  0  0  0  0  0  0
   -0.9972    1.9246   -0.0942 H   0  0  0  0  0  0  0  0  0  0  0  0
   -1.5904   -1.8107    0.2154 H   0  0  0  0  0  0  0  0  0  0  0  0
   -4.6220   -0.6051   -1.3499 H   0  0  0  0  0  0  0  0  0  0  0  0
   -3.4236   -1.7271   -2.0558 H   0  0  0  0  0  0  0  0  0  0  0  0
   -3.9660   -1.9341   -0.3614 H   0  0  0  0  0  0  0  0  0  0  0  0
  1  2  1  0
  1 11  1  0
  1 12  1  0
  1 13  1  0
  2  3  1  0
  2 14  1  0
  3  4  2  0
  3  5  1  0
  5  6  2  3
  5  7  1  0
  6 15  1  0
  6 16  1  0
  7  8  1  0
  7 17  1  0
  8  9  1  0
  8 10  2  0
  9 18  1  0
  9 19  1  0
  9 20  1  0
M  END

> <RosettaParamsInstructions>
M  ROOT 7
M  POLY_N_BB 7
M  POLY_CA_BB 5
M  POLY_C_BB 3
M  POLY_O_BB 4
M  POLY_IGNORE 1 10 9 14 11 12 13 18 19 20
M  POLY_UPPER 2
M  POLY_LOWER 8
M  POLY_CHG 0
M  POLY_PROPERTIES PROTEIN POLYMER ALPHA_AA ALIPHATIC
M  END

$$$$
DHA_new
     RDKit          3D

 20 19  0  0  0  0  0  0  0  0999 V2000
    2.6379   -1.0406    2.6569 C   0  0  0  0  0  0  0  0  0  0  0  0
    1.7127   -0.2240    1.8810 N   0  0  0  0  0  0  0  0  0  0  0  0
    0.5620   -0.8052    1.3439 C   0  0  0  0  0  0  0  0  0  0  0  0
    0.3259   -2.0370    1.5317 O   0  0  0  0  0  0  0  0  0  0  0  0
   -0.4398   -0.0666    0.5428 C   0  0  0  0  0  0  0  0  0  0  0  0
   -0.2398    1.2145    0.3201 C   0  0  0  0  0  0  0  0  0  0  0  0
   -1.5636   -0.7621    0.0525 N   0  0  0  0  0  0  0  0  0  0  0  0
   -2.6191   -0.2598   -0.7176 C   0  0  0  0  0  0  0  0  0  0  0  0
   -3.7393   -1.1734   -1.1475 C   0  0  0  0  0  0  0  0  0  0  0  0
   -2.7202    0.9219   -1.0951 O   0  0  0  0  0  0  0  0  0  0  0  0
    2.3292   -0.9736    3.7262 H   0  0  0  0  0  0  0  0  0  0  0  0
    2.5200   -2.1019    2.3480 H   0  0  0  0  0  0  0  0  0  0  0  0
    3.6606   -0.6816    2.4823 H   0  0  0  0  0  0  0  0  0  0  0  0
    1.9499    0.7538    1.7619 H   0  0  0  0  0  0  0  0  0  0  0  0
   -0.9135    1.8217   -0.2482 H   0  0  0  0  0  0  0  0  0  0  0  0
    0.6494    1.7232    0.7192 H   0  0  0  0  0  0  0  0  0  0  0  0
   -1.6071   -1.8095    0.3068 H   0  0  0  0  0  0  0  0  0  0  0  0
   -4.1709   -0.8394   -2.0997 H   0  0  0  0  0  0  0  0  0  0  0  0
   -3.4044   -2.2103   -1.2421 H   0  0  0  0  0  0  0  0  0  0  0  0
   -4.5362   -1.1025   -0.3823 H   0  0  0  0  0  0  0  0  0  0  0  0
  1  2  1  0
  1 11  1  0
  1 12  1  0
  1 13  1  0
  2  3  1  0
  2 14  1  0
  3  4  2  0
  3  5  1  0
  5  6  2  3
  5  7  1  0
  6 15  1  0
  6 16  1  0
  7  8  1  0
  7 17  1  0
  8  9  1  0
  8 10  2  0
  9 18  1  0
  9 19  1  0
  9 20  1  0
M  END

> <RosettaParamsInstructions>
M  ROOT 7
M  POLY_N_BB 7
M  POLY_CA_BB 5
M  POLY_C_BB 3
M  POLY_O_BB 4
M  POLY_IGNORE 1 10 9 14 11 12 13 18 19 20
M  POLY_UPPER 2
M  POLY_LOWER 8
M  POLY_CHG 0
M  POLY_PROPERTIES PROTEIN POLYMER ALPHA_AA ALIPHATIC
M  END

$$$$
DHA_new
     RDKit          3D

 20 19  0  0  0  0  0  0  0  0999 V2000
    2.6963   -1.0927    2.5107 C   0  0  0  0  0  0  0  0  0  0  0  0
    1.7014   -0.2413    1.8187 N   0  0  0  0  0  0  0  0  0  0  0  0
    0.5759   -0.8358    1.2837 C   0  0  0  0  0  0  0  0  0  0  0  0
    0.4078   -2.0912    1.3894 O   0  0  0  0  0  0  0  0  0  0  0  0
   -0.4618   -0.0835    0.5835 C   0  0  0  0  0  0  0  0  0  0  0  0
   -0.3158    1.2018    0.4607 C   0  0  0  0  0  0  0  0  0  0  0  0
   -1.5962   -0.7478    0.0546 N   0  0  0  0  0  0  0  0  0  0  0  0
   -2.6779   -0.1821   -0.6405 C   0  0  0  0  0  0  0  0  0  0  0  0
   -3.7500   -1.1724   -1.0827 C   0  0  0  0  0  0  0  0  0  0  0  0
   -2.8383    1.0138   -0.9205 O   0  0  0  0  0  0  0  0  0  0  0  0
    3.4926   -1.3265    1.7801 H   0  0  0  0  0  0  0  0  0  0  0  0
    2.2375   -2.0147    2.8875 H   0  0  0  0  0  0  0  0  0  0  0  0
    3.1324   -0.4934    3.3318 H   0  0  0  0  0  0  0  0  0  0  0  0
    1.9014    0.7760    1.7686 H   0  0  0  0  0  0  0  0  0  0  0  0
   -1.0464    1.7967   -0.0426 H   0  0  0  0  0  0  0  0  0  0  0  0
    0.5305    1.7576    0.8457 H   0  0  0  0  0  0  0  0  0  0  0  0
   -1.5799   -1.8159    0.2337 H   0  0  0  0  0  0  0  0  0  0  0  0
   -4.4968   -1.1769   -0.2856 H   0  0  0  0  0  0  0  0  0  0  0  0
   -4.1993   -0.7607   -2.0052 H   0  0  0  0  0  0  0  0  0  0  0  0
   -3.3198   -2.1629   -1.2308 H   0  0  0  0  0  0  0  0  0  0  0  0
  1  2  1  0
  1 11  1  0
  1 12  1  0
  1 13  1  0
  2  3  1  0
  2 14  1  0
  3  4  2  0
  3  5  1  0
  5  6  2  3
  5  7  1  0
  6 15  1  0
  6 16  1  0
  7  8  1  0
  7 17  1  0
  8  9  1  0
  8 10  2  0
  9 18  1  0
  9 19  1  0
  9 20  1  0
M  END

> <RosettaParamsInstructions>
M  ROOT 7
M  POLY_N_BB 7
M  POLY_CA_BB 5
M  POLY_C_BB 3
M  POLY_O_BB 4
M  POLY_IGNORE 1 10 9 14 11 12 13 18 19 20
M  POLY_UPPER 2
M  POLY_LOWER 8
M  POLY_CHG 0
M  POLY_PROPERTIES PROTEIN POLYMER ALPHA_AA ALIPHATIC
M  END

$$$$
DHA_new
     RDKit          3D

 20 19  0  0  0  0  0  0  0  0999 V2000
    2.2630   -1.5789    2.4585 C   0  0  0  0  0  0  0  0  0  0  0  0
    1.0535   -1.2284    1.6832 N   0  0  0  0  0  0  0  0  0  0  0  0
    0.8443    0.1017    1.3027 C   0  0  0  0  0  0  0  0  0  0  0  0
    1.7090    0.9592    1.6419 O   0  0  0  0  0  0  0  0  0  0  0  0
   -0.3401    0.5037    0.5321 C   0  0  0  0  0  0  0  0  0  0  0  0
   -0.4658    1.7694    0.2129 C   0  0  0  0  0  0  0  0  0  0  0  0
   -1.3103   -0.4381    0.1476 N   0  0  0  0  0  0  0  0  0  0  0  0
   -2.4911   -0.2437   -0.5806 C   0  0  0  0  0  0  0  0  0  0  0  0
   -3.3584   -1.4519   -0.8532 C   0  0  0  0  0  0  0  0  0  0  0  0
   -2.8627    0.8605   -1.0122 O   0  0  0  0  0  0  0  0  0  0  0  0
    2.0523   -1.4615    3.5394 H   0  0  0  0  0  0  0  0  0  0  0  0
    2.5535   -2.5989    2.2066 H   0  0  0  0  0  0  0  0  0  0  0  0
    3.0420   -0.8373    2.1557 H   0  0  0  0  0  0  0  0  0  0  0  0
    0.4153   -1.9917    1.4583 H   0  0  0  0  0  0  0  0  0  0  0  0
    0.3295    2.4620    0.5435 H   0  0  0  0  0  0  0  0  0  0  0  0
   -1.2805    2.1652   -0.3403 H   0  0  0  0  0  0  0  0  0  0  0  0
   -1.1234   -1.4521    0.4538 H   0  0  0  0  0  0  0  0  0  0  0  0
   -3.0898   -1.8056   -1.8693 H   0  0  0  0  0  0  0  0  0  0  0  0
   -4.4194   -1.1345   -0.8251 H   0  0  0  0  0  0  0  0  0  0  0  0
   -3.1276   -2.2513   -0.1146 H   0  0  0  0  0  0  0  0  0  0  0  0
  1  2  1  0
  1 11  1  0
  1 12  1  0
  1 13  1  0
  2  3  1  0
  2 14  1  0
  3  4  2  0
  3  5  1  0
  5  6  2  3
  5  7  1  0
  6 15  1  0
  6 16  1  0
  7  8  1  0
  7 17  1  0
  8  9  1  0
  8 10  2  0
  9 18  1  0
  9 19  1  0
  9 20  1  0
M  END

> <RosettaParamsInstructions>
M  ROOT 7
M  POLY_N_BB 7
M  POLY_CA_BB 5
M  POLY_C_BB 3
M  POLY_O_BB 4
M  POLY_IGNORE 1 10 9 14 11 12 13 18 19 20
M  POLY_UPPER 2
M  POLY_LOWER 8
M  POLY_CHG 0
M  POLY_PROPERTIES PROTEIN POLYMER ALPHA_AA ALIPHATIC
M  END

$$$$
DHA_new
     RDKit          3D

 20 19  0  0  0  0  0  0  0  0999 V2000
    2.6917   -1.0532    2.5949 C   0  0  0  0  0  0  0  0  0  0  0  0
    1.7202   -0.2660    1.8514 N   0  0  0  0  0  0  0  0  0  0  0  0
    0.5569   -0.8186    1.3126 C   0  0  0  0  0  0  0  0  0  0  0  0
    0.3211   -2.0521    1.4668 O   0  0  0  0  0  0  0  0  0  0  0  0
   -0.4522   -0.0580    0.5538 C   0  0  0  0  0  0  0  0  0  0  0  0
   -0.2629    1.2362    0.3585 C   0  0  0  0  0  0  0  0  0  0  0  0
   -1.5836   -0.7402    0.0637 N   0  0  0  0  0  0  0  0  0  0  0  0
   -2.6578   -0.2662   -0.6652 C   0  0  0  0  0  0  0  0  0  0  0  0
   -3.7679   -1.1690   -1.0912 C   0  0  0  0  0  0  0  0  0  0  0  0
   -2.7720    0.9158   -1.0085 O   0  0  0  0  0  0  0  0  0  0  0  0
    3.6900   -1.0236    2.1649 H   0  0  0  0  0  0  0  0  0  0  0  0
    2.3456   -2.1159    2.5860 H   0  0  0  0  0  0  0  0  0  0  0  0
    2.7149   -0.6280    3.6249 H   0  0  0  0  0  0  0  0  0  0  0  0
    1.9706    0.7343    1.7604 H   0  0  0  0  0  0  0  0  0  0  0  0
    0.6339    1.7174    0.7610 H   0  0  0  0  0  0  0  0  0  0  0  0
   -0.9753    1.8260   -0.1896 H   0  0  0  0  0  0  0  0  0  0  0  0
   -1.6088   -1.7905    0.2960 H   0  0  0  0  0  0  0  0  0  0  0  0
   -4.7545   -0.8024   -0.7452 H   0  0  0  0  0  0  0  0  0  0  0  0
   -3.6174   -2.2072   -0.7438 H   0  0  0  0  0  0  0  0  0  0  0  0
   -3.7990   -1.0911   -2.2106 H   0  0  0  0  0  0  0  0  0  0  0  0
  1  2  1  0
  1 11  1  0
  1 12  1  0
  1 13  1  0
  2  3  1  0
  2 14  1  0
  3  4  2  0
  3  5  1  0
  5  6  2  3
  5  7  1  0
  6 15  1  0
  6 16  1  0
  7  8  1  0
  7 17  1  0
  8  9  1  0
  8 10  2  0
  9 18  1  0
  9 19  1  0
  9 20  1  0
M  END

> <RosettaParamsInstructions>
M  ROOT 7
M  POLY_N_BB 7
M  POLY_CA_BB 5
M  POLY_C_BB 3
M  POLY_O_BB 4
M  POLY_IGNORE 1 10 9 14 11 12 13 18 19 20
M  POLY_UPPER 2
M  POLY_LOWER 8
M  POLY_CHG 0
M  POLY_PROPERTIES PROTEIN POLYMER ALPHA_AA ALIPHATIC
M  END

$$$$
DHA_new
     RDKit          3D

 20 19  0  0  0  0  0  0  0  0999 V2000
    2.6011   -1.0391    2.6523 C   0  0  0  0  0  0  0  0  0  0  0  0
    1.6975   -0.2345    1.8255 N   0  0  0  0  0  0  0  0  0  0  0  0
    0.5202   -0.8231    1.3512 C   0  0  0  0  0  0  0  0  0  0  0  0
    0.2755   -2.0401    1.6559 O   0  0  0  0  0  0  0  0  0  0  0  0
   -0.4214   -0.0680    0.5203 C   0  0  0  0  0  0  0  0  0  0  0  0
   -0.1857    1.1578    0.2070 C   0  0  0  0  0  0  0  0  0  0  0  0
   -1.5816   -0.7554    0.0925 N   0  0  0  0  0  0  0  0  0  0  0  0
   -2.5979   -0.2511   -0.6899 C   0  0  0  0  0  0  0  0  0  0  0  0
   -3.7628   -1.1377   -1.0471 C   0  0  0  0  0  0  0  0  0  0  0  0
   -2.6447    0.8945   -1.1395 O   0  0  0  0  0  0  0  0  0  0  0  0
    2.4222   -2.0948    2.3789 H   0  0  0  0  0  0  0  0  0  0  0  0
    2.3127   -0.8840    3.7166 H   0  0  0  0  0  0  0  0  0  0  0  0
    3.6233   -0.7075    2.4356 H   0  0  0  0  0  0  0  0  0  0  0  0
    1.9928    0.7351    1.6431 H   0  0  0  0  0  0  0  0  0  0  0  0
   -0.8481    1.7538   -0.4015 H   0  0  0  0  0  0  0  0  0  0  0  0
    0.7370    1.6428    0.5699 H   0  0  0  0  0  0  0  0  0  0  0  0
   -1.6864   -1.7887    0.4117 H   0  0  0  0  0  0  0  0  0  0  0  0
   -3.6111   -1.4459   -2.0873 H   0  0  0  0  0  0  0  0  0  0  0  0
   -3.7663   -2.0336   -0.4035 H   0  0  0  0  0  0  0  0  0  0  0  0
   -4.6828   -0.5327   -0.9509 H   0  0  0  0  0  0  0  0  0  0  0  0
  1  2  1  0
  1 11  1  0
  1 12  1  0
  1 13  1  0
  2  3  1  0
  2 14  1  0
  3  4  2  0
  3  5  1  0
  5  6  2  3
  5  7  1  0
  6 15  1  0
  6 16  1  0
  7  8  1  0
  7 17  1  0
  8  9  1  0
  8 10  2  0
  9 18  1  0
  9 19  1  0
  9 20  1  0
M  END

> <RosettaParamsInstructions>
M  ROOT 7
M  POLY_N_BB 7
M  POLY_CA_BB 5
M  POLY_C_BB 3
M  POLY_O_BB 4
M  POLY_IGNORE 1 10 9 14 11 12 13 18 19 20
M  POLY_UPPER 2
M  POLY_LOWER 8
M  POLY_CHG 0
M  POLY_PROPERTIES PROTEIN POLYMER ALPHA_AA ALIPHATIC
M  END

$$$$
DHA_new
     RDKit          3D

 20 19  0  0  0  0  0  0  0  0999 V2000
    2.6439   -1.1019    2.5707 C   0  0  0  0  0  0  0  0  0  0  0  0
    1.6899   -0.2219    1.8945 N   0  0  0  0  0  0  0  0  0  0  0  0
    0.5540   -0.7924    1.2915 C   0  0  0  0  0  0  0  0  0  0  0  0
    0.4225   -2.0579    1.3714 O   0  0  0  0  0  0  0  0  0  0  0  0
   -0.4848   -0.0143    0.5778 C   0  0  0  0  0  0  0  0  0  0  0  0
   -0.3792    1.2893    0.4776 C   0  0  0  0  0  0  0  0  0  0  0  0
   -1.5462   -0.7642    0.0413 N   0  0  0  0  0  0  0  0  0  0  0  0
   -2.6235   -0.2440   -0.6632 C   0  0  0  0  0  0  0  0  0  0  0  0
   -3.6828   -1.2001   -1.1727 C   0  0  0  0  0  0  0  0  0  0  0  0
   -2.8094    0.9557   -0.9233 O   0  0  0  0  0  0  0  0  0  0  0  0
    3.5565   -0.5151    2.8277 H   0  0  0  0  0  0  0  0  0  0  0  0
    2.9693   -1.9174    1.8930 H   0  0  0  0  0  0  0  0  0  0  0  0
    2.1739   -1.5199    3.4815 H   0  0  0  0  0  0  0  0  0  0  0  0
    1.8462    0.8047    1.8592 H   0  0  0  0  0  0  0  0  0  0  0  0
    0.4910    1.7864    0.9321 H   0  0  0  0  0  0  0  0  0  0  0  0
   -1.1135    1.8893   -0.0331 H   0  0  0  0  0  0  0  0  0  0  0  0
   -1.5367   -1.8266    0.1796 H   0  0  0  0  0  0  0  0  0  0  0  0
   -3.4204   -1.4804   -2.2097 H   0  0  0  0  0  0  0  0  0  0  0  0
   -4.6429   -0.6874   -1.1826 H   0  0  0  0  0  0  0  0  0  0  0  0
   -3.7142   -2.0341   -0.4726 H   0  0  0  0  0  0  0  0  0  0  0  0
  1  2  1  0
  1 11  1  0
  1 12  1  0
  1 13  1  0
  2  3  1  0
  2 14  1  0
  3  4  2  0
  3  5  1  0
  5  6  2  3
  5  7  1  0
  6 15  1  0
  6 16  1  0
  7  8  1  0
  7 17  1  0
  8  9  1  0
  8 10  2  0
  9 18  1  0
  9 19  1  0
  9 20  1  0
M  END

> <RosettaParamsInstructions>
M  ROOT 7
M  POLY_N_BB 7
M  POLY_CA_BB 5
M  POLY_C_BB 3
M  POLY_O_BB 4
M  POLY_IGNORE 1 10 9 14 11 12 13 18 19 20
M  POLY_UPPER 2
M  POLY_LOWER 8
M  POLY_CHG 0
M  POLY_PROPERTIES PROTEIN POLYMER ALPHA_AA ALIPHATIC
M  END

$$$$
DHA_new
     RDKit          3D

 20 19  0  0  0  0  0  0  0  0999 V2000
    2.6852   -1.0523    2.5977 C   0  0  0  0  0  0  0  0  0  0  0  0
    1.6909   -0.2445    1.8779 N   0  0  0  0  0  0  0  0  0  0  0  0
    0.5527   -0.8463    1.3109 C   0  0  0  0  0  0  0  0  0  0  0  0
    0.4006   -2.0844    1.4301 O   0  0  0  0  0  0  0  0  0  0  0  0
   -0.4868   -0.0775    0.5711 C   0  0  0  0  0  0  0  0  0  0  0  0
   -0.3716    1.2123    0.4217 C   0  0  0  0  0  0  0  0  0  0  0  0
   -1.5853   -0.7931    0.0466 N   0  0  0  0  0  0  0  0  0  0  0  0
   -2.6412   -0.2442   -0.6658 C   0  0  0  0  0  0  0  0  0  0  0  0
   -3.7394   -1.1524   -1.1577 C   0  0  0  0  0  0  0  0  0  0  0  0
   -2.7501    0.9558   -0.9318 O   0  0  0  0  0  0  0  0  0  0  0  0
    2.4422   -2.1094    2.4789 H   0  0  0  0  0  0  0  0  0  0  0  0
    3.6776   -0.8692    2.1144 H   0  0  0  0  0  0  0  0  0  0  0  0
    2.7332   -0.7862    3.6655 H   0  0  0  0  0  0  0  0  0  0  0  0
    1.9034    0.7692    1.8320 H   0  0  0  0  0  0  0  0  0  0  0  0
   -1.0324    1.8608   -0.0755 H   0  0  0  0  0  0  0  0  0  0  0  0
    0.5105    1.7111    0.8556 H   0  0  0  0  0  0  0  0  0  0  0  0
   -1.6145   -1.8637    0.2097 H   0  0  0  0  0  0  0  0  0  0  0  0
   -3.3067   -2.1564   -1.2975 H   0  0  0  0  0  0  0  0  0  0  0  0
   -4.1379   -0.7450   -2.1283 H   0  0  0  0  0  0  0  0  0  0  0  0
   -4.5369   -1.1368   -0.4144 H   0  0  0  0  0  0  0  0  0  0  0  0
  1  2  1  0
  1 11  1  0
  1 12  1  0
  1 13  1  0
  2  3  1  0
  2 14  1  0
  3  4  2  0
  3  5  1  0
  5  6  2  3
  5  7  1  0
  6 15  1  0
  6 16  1  0
  7  8  1  0
  7 17  1  0
  8  9  1  0
  8 10  2  0
  9 18  1  0
  9 19  1  0
  9 20  1  0
M  END

> <RosettaParamsInstructions>
M  ROOT 7
M  POLY_N_BB 7
M  POLY_CA_BB 5
M  POLY_C_BB 3
M  POLY_O_BB 4
M  POLY_IGNORE 1 10 9 14 11 12 13 18 19 20
M  POLY_UPPER 2
M  POLY_LOWER 8
M  POLY_CHG 0
M  POLY_PROPERTIES PROTEIN POLYMER ALPHA_AA ALIPHATIC
M  END

$$$$
DHA_new
     RDKit          3D

 20 19  0  0  0  0  0  0  0  0999 V2000
    2.6692   -1.0720    2.5808 C   0  0  0  0  0  0  0  0  0  0  0  0
    1.7129   -0.2334    1.8386 N   0  0  0  0  0  0  0  0  0  0  0  0
    0.5664   -0.8184    1.3137 C   0  0  0  0  0  0  0  0  0  0  0  0
    0.3663   -2.0705    1.4860 O   0  0  0  0  0  0  0  0  0  0  0  0
   -0.4311   -0.0665    0.5678 C   0  0  0  0  0  0  0  0  0  0  0  0
   -0.2324    1.2111    0.3889 C   0  0  0  0  0  0  0  0  0  0  0  0
   -1.5814   -0.7662    0.0671 N   0  0  0  0  0  0  0  0  0  0  0  0
   -2.6334   -0.2556   -0.6548 C   0  0  0  0  0  0  0  0  0  0  0  0
   -3.7722   -1.1647   -1.1009 C   0  0  0  0  0  0  0  0  0  0  0  0
   -2.7573    0.9392   -1.0001 O   0  0  0  0  0  0  0  0  0  0  0  0
    2.4903   -2.1322    2.3208 H   0  0  0  0  0  0  0  0  0  0  0  0
    2.5152   -0.8748    3.6420 H   0  0  0  0  0  0  0  0  0  0  0  0
    3.6768   -0.7593    2.2738 H   0  0  0  0  0  0  0  0  0  0  0  0
    1.9198    0.7683    1.7278 H   0  0  0  0  0  0  0  0  0  0  0  0
    0.6313    1.7205    0.7686 H   0  0  0  0  0  0  0  0  0  0  0  0
   -0.9600    1.8176   -0.1685 H   0  0  0  0  0  0  0  0  0  0  0  0
   -1.5926   -1.8166    0.3016 H   0  0  0  0  0  0  0  0  0  0  0  0
   -3.4613   -2.2179   -1.0757 H   0  0  0  0  0  0  0  0  0  0  0  0
   -4.6416   -1.0054   -0.4275 H   0  0  0  0  0  0  0  0  0  0  0  0
   -4.0914   -0.8554   -2.1092 H   0  0  0  0  0  0  0  0  0  0  0  0
  1  2  1  0
  1 11  1  0
  1 12  1  0
  1 13  1  0
  2  3  1  0
  2 14  1  0
  3  4  2  0
  3  5  1  0
  5  6  2  3
  5  7  1  0
  6 15  1  0
  6 16  1  0
  7  8  1  0
  7 17  1  0
  8  9  1  0
  8 10  2  0
  9 18  1  0
  9 19  1  0
  9 20  1  0
M  END

> <RosettaParamsInstructions>
M  ROOT 7
M  POLY_N_BB 7
M  POLY_CA_BB 5
M  POLY_C_BB 3
M  POLY_O_BB 4
M  POLY_IGNORE 1 10 9 14 11 12 13 18 19 20
M  POLY_UPPER 2
M  POLY_LOWER 8
M  POLY_CHG 0
M  POLY_PROPERTIES PROTEIN POLYMER ALPHA_AA ALIPHATIC
M  END

$$$$
DHA_new
     RDKit          3D

 20 19  0  0  0  0  0  0  0  0999 V2000
    2.6418   -1.0909    2.5488 C   0  0  0  0  0  0  0  0  0  0  0  0
    1.6855   -0.1893    1.8507 N   0  0  0  0  0  0  0  0  0  0  0  0
    0.5593   -0.8102    1.2921 C   0  0  0  0  0  0  0  0  0  0  0  0
    0.4097   -2.0726    1.4027 O   0  0  0  0  0  0  0  0  0  0  0  0
   -0.4756   -0.0390    0.5687 C   0  0  0  0  0  0  0  0  0  0  0  0
   -0.3263    1.2616    0.4519 C   0  0  0  0  0  0  0  0  0  0  0  0
   -1.5619   -0.7765    0.0517 N   0  0  0  0  0  0  0  0  0  0  0  0
   -2.6239   -0.2536   -0.6485 C   0  0  0  0  0  0  0  0  0  0  0  0
   -3.7170   -1.1791   -1.1400 C   0  0  0  0  0  0  0  0  0  0  0  0
   -2.7794    0.9423   -0.9263 O   0  0  0  0  0  0  0  0  0  0  0  0
    3.1001   -0.5052    3.3712 H   0  0  0  0  0  0  0  0  0  0  0  0
    2.1168   -1.9574    2.9746 H   0  0  0  0  0  0  0  0  0  0  0  0
    3.4309   -1.4231    1.8651 H   0  0  0  0  0  0  0  0  0  0  0  0
    1.9125    0.8277    1.8236 H   0  0  0  0  0  0  0  0  0  0  0  0
   -1.0342    1.8713   -0.0558 H   0  0  0  0  0  0  0  0  0  0  0  0
    0.5472    1.7506    0.8840 H   0  0  0  0  0  0  0  0  0  0  0  0
   -1.5525   -1.8275    0.2217 H   0  0  0  0  0  0  0  0  0  0  0  0
   -3.3100   -2.2231   -1.1659 H   0  0  0  0  0  0  0  0  0  0  0  0
   -4.6015   -1.1137   -0.4782 H   0  0  0  0  0  0  0  0  0  0  0  0
   -4.0280   -0.8446   -2.1512 H   0  0  0  0  0  0  0  0  0  0  0  0
  1  2  1  0
  1 11  1  0
  1 12  1  0
  1 13  1  0
  2  3  1  0
  2 14  1  0
  3  4  2  0
  3  5  1  0
  5  6  2  3
  5  7  1  0
  6 15  1  0
  6 16  1  0
  7  8  1  0
  7 17  1  0
  8  9  1  0
  8 10  2  0
  9 18  1  0
  9 19  1  0
  9 20  1  0
M  END

> <RosettaParamsInstructions>
M  ROOT 7
M  POLY_N_BB 7
M  POLY_CA_BB 5
M  POLY_C_BB 3
M  POLY_O_BB 4
M  POLY_IGNORE 1 10 9 14 11 12 13 18 19 20
M  POLY_UPPER 2
M  POLY_LOWER 8
M  POLY_CHG 0
M  POLY_PROPERTIES PROTEIN POLYMER ALPHA_AA ALIPHATIC
M  END

$$$$
DHA_new
     RDKit          3D

 20 19  0  0  0  0  0  0  0  0999 V2000
    2.7035   -1.0549    2.5643 C   0  0  0  0  0  0  0  0  0  0  0  0
    1.6939   -0.2327    1.8740 N   0  0  0  0  0  0  0  0  0  0  0  0
    0.5723   -0.8384    1.2999 C   0  0  0  0  0  0  0  0  0  0  0  0
    0.4181   -2.1118    1.3721 O   0  0  0  0  0  0  0  0  0  0  0  0
   -0.4542   -0.0855    0.6085 C   0  0  0  0  0  0  0  0  0  0  0  0
   -0.3741    1.2121    0.4903 C   0  0  0  0  0  0  0  0  0  0  0  0
   -1.5677   -0.7657    0.0486 N   0  0  0  0  0  0  0  0  0  0  0  0
   -2.6525   -0.2503   -0.6464 C   0  0  0  0  0  0  0  0  0  0  0  0
   -3.7473   -1.1630   -1.1660 C   0  0  0  0  0  0  0  0  0  0  0  0
   -2.8260    0.9447   -0.8989 O   0  0  0  0  0  0  0  0  0  0  0  0
    3.6824   -0.5767    2.4118 H   0  0  0  0  0  0  0  0  0  0  0  0
    2.4668   -1.1066    3.6266 H   0  0  0  0  0  0  0  0  0  0  0  0
    2.7050   -2.0682    2.0841 H   0  0  0  0  0  0  0  0  0  0  0  0
    1.8494    0.7706    1.8369 H   0  0  0  0  0  0  0  0  0  0  0  0
   -1.0749    1.8705    0.0000 H   0  0  0  0  0  0  0  0  0  0  0  0
    0.4972    1.7191    0.9316 H   0  0  0  0  0  0  0  0  0  0  0  0
   -1.5688   -1.8307    0.1832 H   0  0  0  0  0  0  0  0  0  0  0  0
   -3.4382   -2.1976   -0.9758 H   0  0  0  0  0  0  0  0  0  0  0  0
   -4.6570   -0.8452   -0.6369 H   0  0  0  0  0  0  0  0  0  0  0  0
   -3.8341   -1.0419   -2.2671 H   0  0  0  0  0  0  0  0  0  0  0  0
  1  2  1  0
  1 11  1  0
  1 12  1  0
  1 13  1  0
  2  3  1  0
  2 14  1  0
  3  4  2  0
  3  5  1  0
  5  6  2  3
  5  7  1  0
  6 15  1  0
  6 16  1  0
  7  8  1  0
  7 17  1  0
  8  9  1  0
  8 10  2  0
  9 18  1  0
  9 19  1  0
  9 20  1  0
M  END

> <RosettaParamsInstructions>
M  ROOT 7
M  POLY_N_BB 7
M  POLY_CA_BB 5
M  POLY_C_BB 3
M  POLY_O_BB 4
M  POLY_IGNORE 1 10 9 14 11 12 13 18 19 20
M  POLY_UPPER 2
M  POLY_LOWER 8
M  POLY_CHG 0
M  POLY_PROPERTIES PROTEIN POLYMER ALPHA_AA ALIPHATIC
M  END

$$$$
DHA_new
     RDKit          3D

 20 19  0  0  0  0  0  0  0  0999 V2000
    2.3290   -1.6014    2.3310 C   0  0  0  0  0  0  0  0  0  0  0  0
    1.0952   -1.2544    1.6010 N   0  0  0  0  0  0  0  0  0  0  0  0
    0.8414    0.0996    1.3583 C   0  0  0  0  0  0  0  0  0  0  0  0
    1.6631    0.9692    1.7653 O   0  0  0  0  0  0  0  0  0  0  0  0
   -0.3747    0.5036    0.6342 C   0  0  0  0  0  0  0  0  0  0  0  0
   -0.5488    1.7982    0.4414 C   0  0  0  0  0  0  0  0  0  0  0  0
   -1.2917   -0.4552    0.1791 N   0  0  0  0  0  0  0  0  0  0  0  0
   -2.4935   -0.2401   -0.5233 C   0  0  0  0  0  0  0  0  0  0  0  0
   -3.3560   -1.4275   -0.9307 C   0  0  0  0  0  0  0  0  0  0  0  0
   -2.8863    0.8909   -0.8291 O   0  0  0  0  0  0  0  0  0  0  0  0
    2.7066   -2.5383    1.8241 H   0  0  0  0  0  0  0  0  0  0  0  0
    3.0377   -0.7719    2.1628 H   0  0  0  0  0  0  0  0  0  0  0  0
    2.0968   -1.7891    3.3917 H   0  0  0  0  0  0  0  0  0  0  0  0
    0.5031   -2.0475    1.3217 H   0  0  0  0  0  0  0  0  0  0  0  0
   -1.3767    2.2332   -0.0630 H   0  0  0  0  0  0  0  0  0  0  0  0
    0.1929    2.5211    0.8133 H   0  0  0  0  0  0  0  0  0  0  0  0
   -1.0758   -1.4905    0.3771 H   0  0  0  0  0  0  0  0  0  0  0  0
   -3.3092   -2.1527   -0.1140 H   0  0  0  0  0  0  0  0  0  0  0  0
   -4.3938   -1.0680   -1.1207 H   0  0  0  0  0  0  0  0  0  0  0  0
   -2.9658   -1.8315   -1.8793 H   0  0  0  0  0  0  0  0  0  0  0  0
  1  2  1  0
  1 11  1  0
  1 12  1  0
  1 13  1  0
  2  3  1  0
  2 14  1  0
  3  4  2  0
  3  5  1  0
  5  6  2  3
  5  7  1  0
  6 15  1  0
  6 16  1  0
  7  8  1  0
  7 17  1  0
  8  9  1  0
  8 10  2  0
  9 18  1  0
  9 19  1  0
  9 20  1  0
M  END

> <RosettaParamsInstructions>
M  ROOT 7
M  POLY_N_BB 7
M  POLY_CA_BB 5
M  POLY_C_BB 3
M  POLY_O_BB 4
M  POLY_IGNORE 1 10 9 14 11 12 13 18 19 20
M  POLY_UPPER 2
M  POLY_LOWER 8
M  POLY_CHG 0
M  POLY_PROPERTIES PROTEIN POLYMER ALPHA_AA ALIPHATIC
M  END

$$$$
DHA_new
     RDKit          3D

 20 19  0  0  0  0  0  0  0  0999 V2000
    2.2281   -1.6086    2.5105 C   0  0  0  0  0  0  0  0  0  0  0  0
    1.0467   -1.2327    1.7196 N   0  0  0  0  0  0  0  0  0  0  0  0
    0.8193    0.1017    1.3379 C   0  0  0  0  0  0  0  0  0  0  0  0
    1.6705    0.9716    1.7005 O   0  0  0  0  0  0  0  0  0  0  0  0
   -0.3626    0.5283    0.5373 C   0  0  0  0  0  0  0  0  0  0  0  0
   -0.4765    1.7954    0.2373 C   0  0  0  0  0  0  0  0  0  0  0  0
   -1.2971   -0.4378    0.1413 N   0  0  0  0  0  0  0  0  0  0  0  0
   -2.4615   -0.2108   -0.6123 C   0  0  0  0  0  0  0  0  0  0  0  0
   -3.3277   -1.4213   -0.9221 C   0  0  0  0  0  0  0  0  0  0  0  0
   -2.8182    0.8957   -1.0316 O   0  0  0  0  0  0  0  0  0  0  0  0
    1.9610   -1.8354    3.5428 H   0  0  0  0  0  0  0  0  0  0  0  0
    2.9405   -0.7797    2.5054 H   0  0  0  0  0  0  0  0  0  0  0  0
    2.6771   -2.4991    2.0353 H   0  0  0  0  0  0  0  0  0  0  0  0
    0.4308   -2.0213    1.4861 H   0  0  0  0  0  0  0  0  0  0  0  0
   -1.2819    2.1902   -0.3272 H   0  0  0  0  0  0  0  0  0  0  0  0
    0.2763    2.5289    0.5644 H   0  0  0  0  0  0  0  0  0  0  0  0
   -1.1331   -1.4722    0.4297 H   0  0  0  0  0  0  0  0  0  0  0  0
   -2.9876   -1.7458   -1.9315 H   0  0  0  0  0  0  0  0  0  0  0  0
   -3.1272   -2.2414   -0.2331 H   0  0  0  0  0  0  0  0  0  0  0  0
   -4.3835   -1.1578   -0.9493 H   0  0  0  0  0  0  0  0  0  0  0  0
  1  2  1  0
  1 11  1  0
  1 12  1  0
  1 13  1  0
  2  3  1  0
  2 14  1  0
  3  4  2  0
  3  5  1  0
  5  6  2  3
  5  7  1  0
  6 15  1  0
  6 16  1  0
  7  8  1  0
  7 17  1  0
  8  9  1  0
  8 10  2  0
  9 18  1  0
  9 19  1  0
  9 20  1  0
M  END

> <RosettaParamsInstructions>
M  ROOT 7
M  POLY_N_BB 7
M  POLY_CA_BB 5
M  POLY_C_BB 3
M  POLY_O_BB 4
M  POLY_IGNORE 1 10 9 14 11 12 13 18 19 20
M  POLY_UPPER 2
M  POLY_LOWER 8
M  POLY_CHG 0
M  POLY_PROPERTIES PROTEIN POLYMER ALPHA_AA ALIPHATIC
M  END

$$$$
DHA_new
     RDKit          3D

 20 19  0  0  0  0  0  0  0  0999 V2000
    2.6655   -1.0738    2.5832 C   0  0  0  0  0  0  0  0  0  0  0  0
    1.6910   -0.2343    1.8557 N   0  0  0  0  0  0  0  0  0  0  0  0
    0.5474   -0.8038    1.2960 C   0  0  0  0  0  0  0  0  0  0  0  0
    0.3818   -2.0670    1.4384 O   0  0  0  0  0  0  0  0  0  0  0  0
   -0.4689   -0.0543    0.5611 C   0  0  0  0  0  0  0  0  0  0  0  0
   -0.2969    1.2418    0.4163 C   0  0  0  0  0  0  0  0  0  0  0  0
   -1.5792   -0.7659    0.0479 N   0  0  0  0  0  0  0  0  0  0  0  0
   -2.6475   -0.2318   -0.6766 C   0  0  0  0  0  0  0  0  0  0  0  0
   -3.7507   -1.1577   -1.1451 C   0  0  0  0  0  0  0  0  0  0  0  0
   -2.7892    0.9551   -0.9838 O   0  0  0  0  0  0  0  0  0  0  0  0
    2.1968   -2.0267    2.8840 H   0  0  0  0  0  0  0  0  0  0  0  0
    3.0060   -0.5378    3.4754 H   0  0  0  0  0  0  0  0  0  0  0  0
    3.5484   -1.2796    1.9434 H   0  0  0  0  0  0  0  0  0  0  0  0
    1.9506    0.7634    1.8185 H   0  0  0  0  0  0  0  0  0  0  0  0
   -0.9869    1.9037   -0.1116 H   0  0  0  0  0  0  0  0  0  0  0  0
    0.5785    1.7276    0.8353 H   0  0  0  0  0  0  0  0  0  0  0  0
   -1.5759   -1.8153    0.2483 H   0  0  0  0  0  0  0  0  0  0  0  0
   -3.8856   -1.9506   -0.3690 H   0  0  0  0  0  0  0  0  0  0  0  0
   -3.4934   -1.6353   -2.1006 H   0  0  0  0  0  0  0  0  0  0  0  0
   -4.6982   -0.6098   -1.2760 H   0  0  0  0  0  0  0  0  0  0  0  0
  1  2  1  0
  1 11  1  0
  1 12  1  0
  1 13  1  0
  2  3  1  0
  2 14  1  0
  3  4  2  0
  3  5  1  0
  5  6  2  3
  5  7  1  0
  6 15  1  0
  6 16  1  0
  7  8  1  0
  7 17  1  0
  8  9  1  0
  8 10  2  0
  9 18  1  0
  9 19  1  0
  9 20  1  0
M  END

> <RosettaParamsInstructions>
M  ROOT 7
M  POLY_N_BB 7
M  POLY_CA_BB 5
M  POLY_C_BB 3
M  POLY_O_BB 4
M  POLY_IGNORE 1 10 9 14 11 12 13 18 19 20
M  POLY_UPPER 2
M  POLY_LOWER 8
M  POLY_CHG 0
M  POLY_PROPERTIES PROTEIN POLYMER ALPHA_AA ALIPHATIC
M  END

$$$$
DHA_new
     RDKit          3D

 20 19  0  0  0  0  0  0  0  0999 V2000
    2.6732   -1.0607    2.5970 C   0  0  0  0  0  0  0  0  0  0  0  0
    1.6958   -0.2642    1.8836 N   0  0  0  0  0  0  0  0  0  0  0  0
    0.5450   -0.8153    1.3007 C   0  0  0  0  0  0  0  0  0  0  0  0
    0.4077   -2.0819    1.4384 O   0  0  0  0  0  0  0  0  0  0  0  0
   -0.4839   -0.0601    0.5640 C   0  0  0  0  0  0  0  0  0  0  0  0
   -0.3552    1.2207    0.4187 C   0  0  0  0  0  0  0  0  0  0  0  0
   -1.5735   -0.7854    0.0473 N   0  0  0  0  0  0  0  0  0  0  0  0
   -2.6251   -0.2265   -0.6689 C   0  0  0  0  0  0  0  0  0  0  0  0
   -3.7221   -1.1636   -1.1535 C   0  0  0  0  0  0  0  0  0  0  0  0
   -2.7943    0.9774   -0.9764 O   0  0  0  0  0  0  0  0  0  0  0  0
    3.6861   -0.6131    2.4845 H   0  0  0  0  0  0  0  0  0  0  0  0
    2.4044   -1.1169    3.6771 H   0  0  0  0  0  0  0  0  0  0  0  0
    2.7320   -2.0633    2.1248 H   0  0  0  0  0  0  0  0  0  0  0  0
    1.8927    0.7482    1.8248 H   0  0  0  0  0  0  0  0  0  0  0  0
    0.5177    1.7339    0.8445 H   0  0  0  0  0  0  0  0  0  0  0  0
   -1.0250    1.8727   -0.0885 H   0  0  0  0  0  0  0  0  0  0  0  0
   -1.6018   -1.8505    0.2145 H   0  0  0  0  0  0  0  0  0  0  0  0
   -4.5401   -1.0917   -0.4099 H   0  0  0  0  0  0  0  0  0  0  0  0
   -3.3375   -2.1864   -1.2512 H   0  0  0  0  0  0  0  0  0  0  0  0
   -4.1024   -0.8255   -2.1308 H   0  0  0  0  0  0  0  0  0  0  0  0
  1  2  1  0
  1 11  1  0
  1 12  1  0
  1 13  1  0
  2  3  1  0
  2 14  1  0
  3  4  2  0
  3  5  1  0
  5  6  2  3
  5  7  1  0
  6 15  1  0
  6 16  1  0
  7  8  1  0
  7 17  1  0
  8  9  1  0
  8 10  2  0
  9 18  1  0
  9 19  1  0
  9 20  1  0
M  END

> <RosettaParamsInstructions>
M  ROOT 7
M  POLY_N_BB 7
M  POLY_CA_BB 5
M  POLY_C_BB 3
M  POLY_O_BB 4
M  POLY_IGNORE 1 10 9 14 11 12 13 18 19 20
M  POLY_UPPER 2
M  POLY_LOWER 8
M  POLY_CHG 0
M  POLY_PROPERTIES PROTEIN POLYMER ALPHA_AA ALIPHATIC
M  END

$$$$
DHA_new
     RDKit          3D

 20 19  0  0  0  0  0  0  0  0999 V2000
    2.6947   -1.0848    2.5005 C   0  0  0  0  0  0  0  0  0  0  0  0
    1.6629   -0.2268    1.9083 N   0  0  0  0  0  0  0  0  0  0  0  0
    0.5678   -0.8239    1.2549 C   0  0  0  0  0  0  0  0  0  0  0  0
    0.4818   -2.0934    1.1834 O   0  0  0  0  0  0  0  0  0  0  0  0
   -0.4962   -0.0460    0.6425 C   0  0  0  0  0  0  0  0  0  0  0  0
   -0.4432    1.2624    0.6954 C   0  0  0  0  0  0  0  0  0  0  0  0
   -1.5439   -0.7702    0.0149 N   0  0  0  0  0  0  0  0  0  0  0  0
   -2.6707   -0.2318   -0.6382 C   0  0  0  0  0  0  0  0  0  0  0  0
   -3.6700   -1.1998   -1.2415 C   0  0  0  0  0  0  0  0  0  0  0  0
   -2.8833    0.9963   -0.7428 O   0  0  0  0  0  0  0  0  0  0  0  0
    2.6321   -0.9505    3.5826 H   0  0  0  0  0  0  0  0  0  0  0  0
    3.6644   -0.7480    2.0668 H   0  0  0  0  0  0  0  0  0  0  0  0
    2.5408   -2.1273    2.1897 H   0  0  0  0  0  0  0  0  0  0  0  0
    1.8013    0.7881    2.0064 H   0  0  0  0  0  0  0  0  0  0  0  0
    0.3832    1.7865    1.1897 H   0  0  0  0  0  0  0  0  0  0  0  0
   -1.1921    1.9093    0.2661 H   0  0  0  0  0  0  0  0  0  0  0  0
   -1.4877   -1.8443    0.0301 H   0  0  0  0  0  0  0  0  0  0  0  0
   -3.6287   -2.1131   -0.6482 H   0  0  0  0  0  0  0  0  0  0  0  0
   -4.6343   -0.6858   -1.2332 H   0  0  0  0  0  0  0  0  0  0  0  0
   -3.3854   -1.4491   -2.2863 H   0  0  0  0  0  0  0  0  0  0  0  0
  1  2  1  0
  1 11  1  0
  1 12  1  0
  1 13  1  0
  2  3  1  0
  2 14  1  0
  3  4  2  0
  3  5  1  0
  5  6  2  3
  5  7  1  0
  6 15  1  0
  6 16  1  0
  7  8  1  0
  7 17  1  0
  8  9  1  0
  8 10  2  0
  9 18  1  0
  9 19  1  0
  9 20  1  0
M  END

> <RosettaParamsInstructions>
M  ROOT 7
M  POLY_N_BB 7
M  POLY_CA_BB 5
M  POLY_C_BB 3
M  POLY_O_BB 4
M  POLY_IGNORE 1 10 9 14 11 12 13 18 19 20
M  POLY_UPPER 2
M  POLY_LOWER 8
M  POLY_CHG 0
M  POLY_PROPERTIES PROTEIN POLYMER ALPHA_AA ALIPHATIC
M  END

$$$$
DHA_new
     RDKit          3D

 20 19  0  0  0  0  0  0  0  0999 V2000
    2.6265   -1.0530    2.5738 C   0  0  0  0  0  0  0  0  0  0  0  0
    1.6924   -0.2241    1.8110 N   0  0  0  0  0  0  0  0  0  0  0  0
    0.5454   -0.8153    1.3161 C   0  0  0  0  0  0  0  0  0  0  0  0
    0.3093   -2.0439    1.5181 O   0  0  0  0  0  0  0  0  0  0  0  0
   -0.4606   -0.0720    0.5356 C   0  0  0  0  0  0  0  0  0  0  0  0
   -0.2181    1.2075    0.3232 C   0  0  0  0  0  0  0  0  0  0  0  0
   -1.6018   -0.7440    0.0661 N   0  0  0  0  0  0  0  0  0  0  0  0
   -2.6361   -0.2173   -0.6711 C   0  0  0  0  0  0  0  0  0  0  0  0
   -3.7646   -1.1464   -1.0626 C   0  0  0  0  0  0  0  0  0  0  0  0
   -2.6927    0.9768   -1.0314 O   0  0  0  0  0  0  0  0  0  0  0  0
    3.1482   -1.7781    1.8961 H   0  0  0  0  0  0  0  0  0  0  0  0
    2.0468   -1.6450    3.2826 H   0  0  0  0  0  0  0  0  0  0  0  0
    3.3724   -0.4343    3.0919 H   0  0  0  0  0  0  0  0  0  0  0  0
    1.9322    0.7641    1.6770 H   0  0  0  0  0  0  0  0  0  0  0  0
   -0.9213    1.8070   -0.2443 H   0  0  0  0  0  0  0  0  0  0  0  0
    0.6804    1.7217    0.6968 H   0  0  0  0  0  0  0  0  0  0  0  0
   -1.6507   -1.7830    0.3234 H   0  0  0  0  0  0  0  0  0  0  0  0
   -4.3286   -0.7575   -1.9046 H   0  0  0  0  0  0  0  0  0  0  0  0
   -4.3845   -1.2905   -0.1567 H   0  0  0  0  0  0  0  0  0  0  0  0
   -3.3010   -2.1247   -1.3000 H   0  0  0  0  0  0  0  0  0  0  0  0
  1  2  1  0
  1 11  1  0
  1 12  1  0
  1 13  1  0
  2  3  1  0
  2 14  1  0
  3  4  2  0
  3  5  1  0
  5  6  2  3
  5  7  1  0
  6 15  1  0
  6 16  1  0
  7  8  1  0
  7 17  1  0
  8  9  1  0
  8 10  2  0
  9 18  1  0
  9 19  1  0
  9 20  1  0
M  END

> <RosettaParamsInstructions>
M  ROOT 7
M  POLY_N_BB 7
M  POLY_CA_BB 5
M  POLY_C_BB 3
M  POLY_O_BB 4
M  POLY_IGNORE 1 10 9 14 11 12 13 18 19 20
M  POLY_UPPER 2
M  POLY_LOWER 8
M  POLY_CHG 0
M  POLY_PROPERTIES PROTEIN POLYMER ALPHA_AA ALIPHATIC
M  END

$$$$
DHA_new
     RDKit          3D

 20 19  0  0  0  0  0  0  0  0999 V2000
    2.2582   -1.5948    2.4615 C   0  0  0  0  0  0  0  0  0  0  0  0
    1.0572   -1.2420    1.6861 N   0  0  0  0  0  0  0  0  0  0  0  0
    0.8372    0.0852    1.3451 C   0  0  0  0  0  0  0  0  0  0  0  0
    1.6655    0.9752    1.7013 O   0  0  0  0  0  0  0  0  0  0  0  0
   -0.3491    0.5018    0.5685 C   0  0  0  0  0  0  0  0  0  0  0  0
   -0.4865    1.7865    0.2837 C   0  0  0  0  0  0  0  0  0  0  0  0
   -1.2882   -0.4484    0.1553 N   0  0  0  0  0  0  0  0  0  0  0  0
   -2.4709   -0.2383   -0.5866 C   0  0  0  0  0  0  0  0  0  0  0  0
   -3.3528   -1.4082   -0.9308 C   0  0  0  0  0  0  0  0  0  0  0  0
   -2.8906    0.8602   -1.0112 O   0  0  0  0  0  0  0  0  0  0  0  0
    2.0851   -2.4734    3.1012 H   0  0  0  0  0  0  0  0  0  0  0  0
    2.6165   -0.7033    3.0169 H   0  0  0  0  0  0  0  0  0  0  0  0
    3.0415   -1.7944    1.6829 H   0  0  0  0  0  0  0  0  0  0  0  0
    0.4178   -1.9999    1.4223 H   0  0  0  0  0  0  0  0  0  0  0  0
    0.2916    2.4865    0.6397 H   0  0  0  0  0  0  0  0  0  0  0  0
   -1.3001    2.1569   -0.2623 H   0  0  0  0  0  0  0  0  0  0  0  0
   -1.1201   -1.4670    0.4166 H   0  0  0  0  0  0  0  0  0  0  0  0
   -4.4019   -1.1094   -0.8933 H   0  0  0  0  0  0  0  0  0  0  0  0
   -3.1614   -2.1911   -0.1418 H   0  0  0  0  0  0  0  0  0  0  0  0
   -3.0552   -1.8343   -1.9141 H   0  0  0  0  0  0  0  0  0  0  0  0
  1  2  1  0
  1 11  1  0
  1 12  1  0
  1 13  1  0
  2  3  1  0
  2 14  1  0
  3  4  2  0
  3  5  1  0
  5  6  2  3
  5  7  1  0
  6 15  1  0
  6 16  1  0
  7  8  1  0
  7 17  1  0
  8  9  1  0
  8 10  2  0
  9 18  1  0
  9 19  1  0
  9 20  1  0
M  END

> <RosettaParamsInstructions>
M  ROOT 7
M  POLY_N_BB 7
M  POLY_CA_BB 5
M  POLY_C_BB 3
M  POLY_O_BB 4
M  POLY_IGNORE 1 10 9 14 11 12 13 18 19 20
M  POLY_UPPER 2
M  POLY_LOWER 8
M  POLY_CHG 0
M  POLY_PROPERTIES PROTEIN POLYMER ALPHA_AA ALIPHATIC
M  END

$$$$
DHA_new
     RDKit          3D

 20 19  0  0  0  0  0  0  0  0999 V2000
    2.7074   -1.0762    2.5033 C   0  0  0  0  0  0  0  0  0  0  0  0
    1.6707   -0.2587    1.8450 N   0  0  0  0  0  0  0  0  0  0  0  0
    0.5520   -0.8462    1.2478 C   0  0  0  0  0  0  0  0  0  0  0  0
    0.4461   -2.0943    1.2830 O   0  0  0  0  0  0  0  0  0  0  0  0
   -0.4813   -0.0724    0.5948 C   0  0  0  0  0  0  0  0  0  0  0  0
   -0.3682    1.2255    0.5599 C   0  0  0  0  0  0  0  0  0  0  0  0
   -1.5656   -0.7764    0.0263 N   0  0  0  0  0  0  0  0  0  0  0  0
   -2.6576   -0.2369   -0.6424 C   0  0  0  0  0  0  0  0  0  0  0  0
   -3.7190   -1.1723   -1.1800 C   0  0  0  0  0  0  0  0  0  0  0  0
   -2.8072    0.9754   -0.8216 O   0  0  0  0  0  0  0  0  0  0  0  0
    2.4376   -2.1406    2.4096 H   0  0  0  0  0  0  0  0  0  0  0  0
    3.6994   -0.8774    2.0472 H   0  0  0  0  0  0  0  0  0  0  0  0
    2.7323   -0.7515    3.5715 H   0  0  0  0  0  0  0  0  0  0  0  0
    1.8516    0.7545    1.8710 H   0  0  0  0  0  0  0  0  0  0  0  0
    0.4771    1.7560    1.0045 H   0  0  0  0  0  0  0  0  0  0  0  0
   -1.0793    1.9103    0.0989 H   0  0  0  0  0  0  0  0  0  0  0  0
   -1.5472   -1.8475    0.1193 H   0  0  0  0  0  0  0  0  0  0  0  0
   -3.7506   -2.0350   -0.4921 H   0  0  0  0  0  0  0  0  0  0  0  0
   -4.6895   -0.6450   -1.0749 H   0  0  0  0  0  0  0  0  0  0  0  0
   -3.5150   -1.4435   -2.2303 H   0  0  0  0  0  0  0  0  0  0  0  0
  1  2  1  0
  1 11  1  0
  1 12  1  0
  1 13  1  0
  2  3  1  0
  2 14  1  0
  3  4  2  0
  3  5  1  0
  5  6  2  3
  5  7  1  0
  6 15  1  0
  6 16  1  0
  7  8  1  0
  7 17  1  0
  8  9  1  0
  8 10  2  0
  9 18  1  0
  9 19  1  0
  9 20  1  0
M  END

> <RosettaParamsInstructions>
M  ROOT 7
M  POLY_N_BB 7
M  POLY_CA_BB 5
M  POLY_C_BB 3
M  POLY_O_BB 4
M  POLY_IGNORE 1 10 9 14 11 12 13 18 19 20
M  POLY_UPPER 2
M  POLY_LOWER 8
M  POLY_CHG 0
M  POLY_PROPERTIES PROTEIN POLYMER ALPHA_AA ALIPHATIC
M  END

$$$$
DHA_new
     RDKit          3D

 20 19  0  0  0  0  0  0  0  0999 V2000
    2.6563   -1.0944    2.5456 C   0  0  0  0  0  0  0  0  0  0  0  0
    1.6999   -0.2012    1.8626 N   0  0  0  0  0  0  0  0  0  0  0  0
    0.5665   -0.7954    1.2843 C   0  0  0  0  0  0  0  0  0  0  0  0
    0.4159   -2.0493    1.3710 O   0  0  0  0  0  0  0  0  0  0  0  0
   -0.4763   -0.0196    0.5686 C   0  0  0  0  0  0  0  0  0  0  0  0
   -0.3630    1.2714    0.4555 C   0  0  0  0  0  0  0  0  0  0  0  0
   -1.5715   -0.7592    0.0336 N   0  0  0  0  0  0  0  0  0  0  0  0
   -2.6391   -0.2177   -0.6629 C   0  0  0  0  0  0  0  0  0  0  0  0
   -3.7018   -1.1913   -1.1475 C   0  0  0  0  0  0  0  0  0  0  0  0
   -2.8051    0.9766   -0.9244 O   0  0  0  0  0  0  0  0  0  0  0  0
    3.6191   -0.6144    2.7149 H   0  0  0  0  0  0  0  0  0  0  0  0
    2.6844   -2.0283    1.9637 H   0  0  0  0  0  0  0  0  0  0  0  0
    2.2276   -1.3490    3.5479 H   0  0  0  0  0  0  0  0  0  0  0  0
    1.8908    0.8121    1.8319 H   0  0  0  0  0  0  0  0  0  0  0  0
   -1.0734    1.9117   -0.0476 H   0  0  0  0  0  0  0  0  0  0  0  0
    0.5236    1.7517    0.9060 H   0  0  0  0  0  0  0  0  0  0  0  0
   -1.5435   -1.8059    0.1948 H   0  0  0  0  0  0  0  0  0  0  0  0
   -4.2659   -1.5126   -0.2489 H   0  0  0  0  0  0  0  0  0  0  0  0
   -3.1319   -2.0359   -1.6110 H   0  0  0  0  0  0  0  0  0  0  0  0
   -4.3191   -0.7015   -1.8973 H   0  0  0  0  0  0  0  0  0  0  0  0
  1  2  1  0
  1 11  1  0
  1 12  1  0
  1 13  1  0
  2  3  1  0
  2 14  1  0
  3  4  2  0
  3  5  1  0
  5  6  2  3
  5  7  1  0
  6 15  1  0
  6 16  1  0
  7  8  1  0
  7 17  1  0
  8  9  1  0
  8 10  2  0
  9 18  1  0
  9 19  1  0
  9 20  1  0
M  END

> <RosettaParamsInstructions>
M  ROOT 7
M  POLY_N_BB 7
M  POLY_CA_BB 5
M  POLY_C_BB 3
M  POLY_O_BB 4
M  POLY_IGNORE 1 10 9 14 11 12 13 18 19 20
M  POLY_UPPER 2
M  POLY_LOWER 8
M  POLY_CHG 0
M  POLY_PROPERTIES PROTEIN POLYMER ALPHA_AA ALIPHATIC
M  END

$$$$
DHA_new
     RDKit          3D

 20 19  0  0  0  0  0  0  0  0999 V2000
    2.6903   -1.0957    2.4863 C   0  0  0  0  0  0  0  0  0  0  0  0
    1.6968   -0.2407    1.8238 N   0  0  0  0  0  0  0  0  0  0  0  0
    0.5695   -0.8428    1.2647 C   0  0  0  0  0  0  0  0  0  0  0  0
    0.4268   -2.0907    1.3374 O   0  0  0  0  0  0  0  0  0  0  0  0
   -0.4868   -0.0534    0.5749 C   0  0  0  0  0  0  0  0  0  0  0  0
   -0.3850    1.2390    0.4737 C   0  0  0  0  0  0  0  0  0  0  0  0
   -1.5820   -0.7607    0.0468 N   0  0  0  0  0  0  0  0  0  0  0  0
   -2.6578   -0.1992   -0.6260 C   0  0  0  0  0  0  0  0  0  0  0  0
   -3.7260   -1.1589   -1.1081 C   0  0  0  0  0  0  0  0  0  0  0  0
   -2.8307    1.0018   -0.8702 O   0  0  0  0  0  0  0  0  0  0  0  0
    2.3069   -2.1258    2.6311 H   0  0  0  0  0  0  0  0  0  0  0  0
    2.8530   -0.6312    3.4899 H   0  0  0  0  0  0  0  0  0  0  0  0
    3.6600   -1.0760    1.9536 H   0  0  0  0  0  0  0  0  0  0  0  0
    1.9133    0.7580    1.8230 H   0  0  0  0  0  0  0  0  0  0  0  0
    0.4979    1.7280    0.9095 H   0  0  0  0  0  0  0  0  0  0  0  0
   -1.0973    1.8513   -0.0012 H   0  0  0  0  0  0  0  0  0  0  0  0
   -1.5646   -1.8312    0.1876 H   0  0  0  0  0  0  0  0  0  0  0  0
   -3.7451   -2.0451   -0.4656 H   0  0  0  0  0  0  0  0  0  0  0  0
   -4.6821   -0.6373   -1.0525 H   0  0  0  0  0  0  0  0  0  0  0  0
   -3.4636   -1.4414   -2.1378 H   0  0  0  0  0  0  0  0  0  0  0  0
  1  2  1  0
  1 11  1  0
  1 12  1  0
  1 13  1  0
  2  3  1  0
  2 14  1  0
  3  4  2  0
  3  5  1  0
  5  6  2  3
  5  7  1  0
  6 15  1  0
  6 16  1  0
  7  8  1  0
  7 17  1  0
  8  9  1  0
  8 10  2  0
  9 18  1  0
  9 19  1  0
  9 20  1  0
M  END

> <RosettaParamsInstructions>
M  ROOT 7
M  POLY_N_BB 7
M  POLY_CA_BB 5
M  POLY_C_BB 3
M  POLY_O_BB 4
M  POLY_IGNORE 1 10 9 14 11 12 13 18 19 20
M  POLY_UPPER 2
M  POLY_LOWER 8
M  POLY_CHG 0
M  POLY_PROPERTIES PROTEIN POLYMER ALPHA_AA ALIPHATIC
M  END

$$$$
DHA_new
     RDKit          3D

 20 19  0  0  0  0  0  0  0  0999 V2000
    2.6712   -1.0523    2.5782 C   0  0  0  0  0  0  0  0  0  0  0  0
    1.7187   -0.2322    1.8895 N   0  0  0  0  0  0  0  0  0  0  0  0
    0.5767   -0.7942    1.3066 C   0  0  0  0  0  0  0  0  0  0  0  0
    0.4388   -2.0642    1.4252 O   0  0  0  0  0  0  0  0  0  0  0  0
   -0.4643   -0.0342    0.5752 C   0  0  0  0  0  0  0  0  0  0  0  0
   -0.3338    1.2427    0.4511 C   0  0  0  0  0  0  0  0  0  0  0  0
   -1.5590   -0.7327    0.0416 N   0  0  0  0  0  0  0  0  0  0  0  0
   -2.6548   -0.2480   -0.6787 C   0  0  0  0  0  0  0  0  0  0  0  0
   -3.7441   -1.1715   -1.1738 C   0  0  0  0  0  0  0  0  0  0  0  0
   -2.8157    0.9434   -0.9607 O   0  0  0  0  0  0  0  0  0  0  0  0
    3.6763   -0.6144    2.4758 H   0  0  0  0  0  0  0  0  0  0  0  0
    2.6841   -2.0775    2.1093 H   0  0  0  0  0  0  0  0  0  0  0  0
    2.3773   -1.1915    3.6576 H   0  0  0  0  0  0  0  0  0  0  0  0
    1.9006    0.7800    1.8372 H   0  0  0  0  0  0  0  0  0  0  0  0
    0.5251    1.7517    0.8759 H   0  0  0  0  0  0  0  0  0  0  0  0
   -1.0584    1.8356   -0.0680 H   0  0  0  0  0  0  0  0  0  0  0  0
   -1.5452   -1.8041    0.2182 H   0  0  0  0  0  0  0  0  0  0  0  0
   -3.4342   -2.2335   -1.0809 H   0  0  0  0  0  0  0  0  0  0  0  0
   -3.9415   -0.9174   -2.2252 H   0  0  0  0  0  0  0  0  0  0  0  0
   -4.6239   -1.0378   -0.5130 H   0  0  0  0  0  0  0  0  0  0  0  0
  1  2  1  0
  1 11  1  0
  1 12  1  0
  1 13  1  0
  2  3  1  0
  2 14  1  0
  3  4  2  0
  3  5  1  0
  5  6  2  3
  5  7  1  0
  6 15  1  0
  6 16  1  0
  7  8  1  0
  7 17  1  0
  8  9  1  0
  8 10  2  0
  9 18  1  0
  9 19  1  0
  9 20  1  0
M  END

> <RosettaParamsInstructions>
M  ROOT 7
M  POLY_N_BB 7
M  POLY_CA_BB 5
M  POLY_C_BB 3
M  POLY_O_BB 4
M  POLY_IGNORE 1 10 9 14 11 12 13 18 19 20
M  POLY_UPPER 2
M  POLY_LOWER 8
M  POLY_CHG 0
M  POLY_PROPERTIES PROTEIN POLYMER ALPHA_AA ALIPHATIC
M  END

$$$$
DHA_new
     RDKit          3D

 20 19  0  0  0  0  0  0  0  0999 V2000
    2.6615   -1.0617    2.5808 C   0  0  0  0  0  0  0  0  0  0  0  0
    1.6896   -0.2266    1.8694 N   0  0  0  0  0  0  0  0  0  0  0  0
    0.5636   -0.8153    1.3121 C   0  0  0  0  0  0  0  0  0  0  0  0
    0.4086   -2.0725    1.4372 O   0  0  0  0  0  0  0  0  0  0  0  0
   -0.4548   -0.0515    0.5857 C   0  0  0  0  0  0  0  0  0  0  0  0
   -0.3362    1.2369    0.4340 C   0  0  0  0  0  0  0  0  0  0  0  0
   -1.5453   -0.7650    0.0706 N   0  0  0  0  0  0  0  0  0  0  0  0
   -2.6264   -0.2524   -0.6494 C   0  0  0  0  0  0  0  0  0  0  0  0
   -3.7341   -1.1614   -1.1410 C   0  0  0  0  0  0  0  0  0  0  0  0
   -2.7880    0.9435   -0.9491 O   0  0  0  0  0  0  0  0  0  0  0  0
    3.2936   -1.5208    1.7929 H   0  0  0  0  0  0  0  0  0  0  0  0
    3.2747   -0.4758    3.2825 H   0  0  0  0  0  0  0  0  0  0  0  0
    2.0836   -1.8315    3.1085 H   0  0  0  0  0  0  0  0  0  0  0  0
    1.8953    0.7755    1.8178 H   0  0  0  0  0  0  0  0  0  0  0  0
    0.5444    1.7331    0.8636 H   0  0  0  0  0  0  0  0  0  0  0  0
   -1.0188    1.8898   -0.0771 H   0  0  0  0  0  0  0  0  0  0  0  0
   -1.5600   -1.8240    0.2437 H   0  0  0  0  0  0  0  0  0  0  0  0
   -3.7366   -2.1069   -0.5693 H   0  0  0  0  0  0  0  0  0  0  0  0
   -3.5254   -1.4208   -2.1992 H   0  0  0  0  0  0  0  0  0  0  0  0
   -4.6961   -0.6449   -1.0729 H   0  0  0  0  0  0  0  0  0  0  0  0
  1  2  1  0
  1 11  1  0
  1 12  1  0
  1 13  1  0
  2  3  1  0
  2 14  1  0
  3  4  2  0
  3  5  1  0
  5  6  2  3
  5  7  1  0
  6 15  1  0
  6 16  1  0
  7  8  1  0
  7 17  1  0
  8  9  1  0
  8 10  2  0
  9 18  1  0
  9 19  1  0
  9 20  1  0
M  END

> <RosettaParamsInstructions>
M  ROOT 7
M  POLY_N_BB 7
M  POLY_CA_BB 5
M  POLY_C_BB 3
M  POLY_O_BB 4
M  POLY_IGNORE 1 10 9 14 11 12 13 18 19 20
M  POLY_UPPER 2
M  POLY_LOWER 8
M  POLY_CHG 0
M  POLY_PROPERTIES PROTEIN POLYMER ALPHA_AA ALIPHATIC
M  END

$$$$
DHA_new
     RDKit          3D

 20 19  0  0  0  0  0  0  0  0999 V2000
    2.6835   -1.0629    2.5876 C   0  0  0  0  0  0  0  0  0  0  0  0
    1.6955   -0.2659    1.8553 N   0  0  0  0  0  0  0  0  0  0  0  0
    0.5444   -0.8338    1.3001 C   0  0  0  0  0  0  0  0  0  0  0  0
    0.3775   -2.0714    1.4496 O   0  0  0  0  0  0  0  0  0  0  0  0
   -0.4434   -0.0578    0.5721 C   0  0  0  0  0  0  0  0  0  0  0  0
   -0.2659    1.2289    0.4189 C   0  0  0  0  0  0  0  0  0  0  0  0
   -1.5701   -0.7642    0.0587 N   0  0  0  0  0  0  0  0  0  0  0  0
   -2.6488   -0.2602   -0.6679 C   0  0  0  0  0  0  0  0  0  0  0  0
   -3.7694   -1.1558   -1.1401 C   0  0  0  0  0  0  0  0  0  0  0  0
   -2.7648    0.9420   -0.9747 O   0  0  0  0  0  0  0  0  0  0  0  0
    3.6719   -0.7589    2.2123 H   0  0  0  0  0  0  0  0  0  0  0  0
    2.4868   -2.1499    2.4289 H   0  0  0  0  0  0  0  0  0  0  0  0
    2.6025   -0.7680    3.6548 H   0  0  0  0  0  0  0  0  0  0  0  0
    1.9099    0.7297    1.7814 H   0  0  0  0  0  0  0  0  0  0  0  0
   -0.9642    1.8380   -0.1078 H   0  0  0  0  0  0  0  0  0  0  0  0
    0.5938    1.7170    0.8208 H   0  0  0  0  0  0  0  0  0  0  0  0
   -1.5674   -1.8234    0.2711 H   0  0  0  0  0  0  0  0  0  0  0  0
   -3.5801   -1.5203   -2.1704 H   0  0  0  0  0  0  0  0  0  0  0  0
   -4.7210   -0.5867   -1.1525 H   0  0  0  0  0  0  0  0  0  0  0  0
   -3.8771   -2.0288   -0.4575 H   0  0  0  0  0  0  0  0  0  0  0  0
  1  2  1  0
  1 11  1  0
  1 12  1  0
  1 13  1  0
  2  3  1  0
  2 14  1  0
  3  4  2  0
  3  5  1  0
  5  6  2  3
  5  7  1  0
  6 15  1  0
  6 16  1  0
  7  8  1  0
  7 17  1  0
  8  9  1  0
  8 10  2  0
  9 18  1  0
  9 19  1  0
  9 20  1  0
M  END

> <RosettaParamsInstructions>
M  ROOT 7
M  POLY_N_BB 7
M  POLY_CA_BB 5
M  POLY_C_BB 3
M  POLY_O_BB 4
M  POLY_IGNORE 1 10 9 14 11 12 13 18 19 20
M  POLY_UPPER 2
M  POLY_LOWER 8
M  POLY_CHG 0
M  POLY_PROPERTIES PROTEIN POLYMER ALPHA_AA ALIPHATIC
M  END

$$$$
DHA_new
     RDKit          3D

 20 19  0  0  0  0  0  0  0  0999 V2000
    2.6535   -1.0463    2.5818 C   0  0  0  0  0  0  0  0  0  0  0  0
    1.6652   -0.2247    1.8958 N   0  0  0  0  0  0  0  0  0  0  0  0
    0.5574   -0.8232    1.3044 C   0  0  0  0  0  0  0  0  0  0  0  0
    0.4235   -2.0829    1.3717 O   0  0  0  0  0  0  0  0  0  0  0  0
   -0.4978   -0.0798    0.5877 C   0  0  0  0  0  0  0  0  0  0  0  0
   -0.3755    1.2198    0.5089 C   0  0  0  0  0  0  0  0  0  0  0  0
   -1.5721   -0.7775    0.0280 N   0  0  0  0  0  0  0  0  0  0  0  0
   -2.6325   -0.2338   -0.6685 C   0  0  0  0  0  0  0  0  0  0  0  0
   -3.6988   -1.1634   -1.1965 C   0  0  0  0  0  0  0  0  0  0  0  0
   -2.7933    0.9602   -0.9040 O   0  0  0  0  0  0  0  0  0  0  0  0
    2.2121   -1.5771    3.4249 H   0  0  0  0  0  0  0  0  0  0  0  0
    3.5373   -0.4652    2.8997 H   0  0  0  0  0  0  0  0  0  0  0  0
    3.0195   -1.8073    1.8646 H   0  0  0  0  0  0  0  0  0  0  0  0
    1.8312    0.7861    1.8768 H   0  0  0  0  0  0  0  0  0  0  0  0
   -1.0686    1.8901    0.0168 H   0  0  0  0  0  0  0  0  0  0  0  0
    0.4716    1.7606    0.9514 H   0  0  0  0  0  0  0  0  0  0  0  0
   -1.5678   -1.8428    0.1550 H   0  0  0  0  0  0  0  0  0  0  0  0
   -3.3798   -1.4788   -2.2109 H   0  0  0  0  0  0  0  0  0  0  0  0
   -4.6601   -0.6310   -1.2138 H   0  0  0  0  0  0  0  0  0  0  0  0
   -3.7314   -2.0352   -0.5331 H   0  0  0  0  0  0  0  0  0  0  0  0
  1  2  1  0
  1 11  1  0
  1 12  1  0
  1 13  1  0
  2  3  1  0
  2 14  1  0
  3  4  2  0
  3  5  1  0
  5  6  2  3
  5  7  1  0
  6 15  1  0
  6 16  1  0
  7  8  1  0
  7 17  1  0
  8  9  1  0
  8 10  2  0
  9 18  1  0
  9 19  1  0
  9 20  1  0
M  END

> <RosettaParamsInstructions>
M  ROOT 7
M  POLY_N_BB 7
M  POLY_CA_BB 5
M  POLY_C_BB 3
M  POLY_O_BB 4
M  POLY_IGNORE 1 10 9 14 11 12 13 18 19 20
M  POLY_UPPER 2
M  POLY_LOWER 8
M  POLY_CHG 0
M  POLY_PROPERTIES PROTEIN POLYMER ALPHA_AA ALIPHATIC
M  END

$$$$
DHA_new
     RDKit          3D

 20 19  0  0  0  0  0  0  0  0999 V2000
    2.6764   -1.0617    2.5318 C   0  0  0  0  0  0  0  0  0  0  0  0
    1.6426   -0.2272    1.8938 N   0  0  0  0  0  0  0  0  0  0  0  0
    0.5837   -0.8555    1.2806 C   0  0  0  0  0  0  0  0  0  0  0  0
    0.4762   -2.1335    1.2513 O   0  0  0  0  0  0  0  0  0  0  0  0
   -0.4979   -0.0836    0.6158 C   0  0  0  0  0  0  0  0  0  0  0  0
   -0.4104    1.2125    0.6327 C   0  0  0  0  0  0  0  0  0  0  0  0
   -1.5550   -0.7847    0.0056 N   0  0  0  0  0  0  0  0  0  0  0  0
   -2.6304   -0.2410   -0.6493 C   0  0  0  0  0  0  0  0  0  0  0  0
   -3.6702   -1.1739   -1.2431 C   0  0  0  0  0  0  0  0  0  0  0  0
   -2.8354    0.9673   -0.8042 O   0  0  0  0  0  0  0  0  0  0  0  0
    2.8793   -0.5924    3.5204 H   0  0  0  0  0  0  0  0  0  0  0  0
    3.6004   -0.9720    1.9388 H   0  0  0  0  0  0  0  0  0  0  0  0
    2.3190   -2.0944    2.6492 H   0  0  0  0  0  0  0  0  0  0  0  0
    1.7924    0.7742    1.9557 H   0  0  0  0  0  0  0  0  0  0  0  0
   -1.1756    1.8276    0.1605 H   0  0  0  0  0  0  0  0  0  0  0  0
    0.4334    1.7275    1.1210 H   0  0  0  0  0  0  0  0  0  0  0  0
   -1.5095   -1.8555    0.0617 H   0  0  0  0  0  0  0  0  0  0  0  0
   -4.6504   -0.6550   -1.2311 H   0  0  0  0  0  0  0  0  0  0  0  0
   -3.4068   -1.3473   -2.3149 H   0  0  0  0  0  0  0  0  0  0  0  0
   -3.6681   -2.0834   -0.6356 H   0  0  0  0  0  0  0  0  0  0  0  0
  1  2  1  0
  1 11  1  0
  1 12  1  0
  1 13  1  0
  2  3  1  0
  2 14  1  0
  3  4  2  0
  3  5  1  0
  5  6  2  3
  5  7  1  0
  6 15  1  0
  6 16  1  0
  7  8  1  0
  7 17  1  0
  8  9  1  0
  8 10  2  0
  9 18  1  0
  9 19  1  0
  9 20  1  0
M  END

> <RosettaParamsInstructions>
M  ROOT 7
M  POLY_N_BB 7
M  POLY_CA_BB 5
M  POLY_C_BB 3
M  POLY_O_BB 4
M  POLY_IGNORE 1 10 9 14 11 12 13 18 19 20
M  POLY_UPPER 2
M  POLY_LOWER 8
M  POLY_CHG 0
M  POLY_PROPERTIES PROTEIN POLYMER ALPHA_AA ALIPHATIC
M  END

$$$$
DHA_new
     RDKit          3D

 20 19  0  0  0  0  0  0  0  0999 V2000
    2.6685   -1.0578    2.5798 C   0  0  0  0  0  0  0  0  0  0  0  0
    1.6900   -0.2114    1.8629 N   0  0  0  0  0  0  0  0  0  0  0  0
    0.5790   -0.8266    1.3133 C   0  0  0  0  0  0  0  0  0  0  0  0
    0.4130   -2.0665    1.4238 O   0  0  0  0  0  0  0  0  0  0  0  0
   -0.4674   -0.0856    0.5741 C   0  0  0  0  0  0  0  0  0  0  0  0
   -0.3266    1.2040    0.4405 C   0  0  0  0  0  0  0  0  0  0  0  0
   -1.5633   -0.7836    0.0473 N   0  0  0  0  0  0  0  0  0  0  0  0
   -2.6227   -0.2573   -0.6634 C   0  0  0  0  0  0  0  0  0  0  0  0
   -3.7505   -1.1296   -1.1797 C   0  0  0  0  0  0  0  0  0  0  0  0
   -2.7383    0.9525   -0.9344 O   0  0  0  0  0  0  0  0  0  0  0  0
    2.3025   -1.1462    3.6223 H   0  0  0  0  0  0  0  0  0  0  0  0
    2.7126   -2.0231    2.0457 H   0  0  0  0  0  0  0  0  0  0  0  0
    3.6583   -0.5974    2.5768 H   0  0  0  0  0  0  0  0  0  0  0  0
    1.8960    0.8087    1.8128 H   0  0  0  0  0  0  0  0  0  0  0  0
    0.5420    1.7051    0.8668 H   0  0  0  0  0  0  0  0  0  0  0  0
   -1.0160    1.8225   -0.0684 H   0  0  0  0  0  0  0  0  0  0  0  0
   -1.5673   -1.8494    0.2238 H   0  0  0  0  0  0  0  0  0  0  0  0
   -3.8209   -2.0031   -0.4923 H   0  0  0  0  0  0  0  0  0  0  0  0
   -3.5056   -1.5326   -2.1819 H   0  0  0  0  0  0  0  0  0  0  0  0
   -4.6898   -0.5747   -1.1288 H   0  0  0  0  0  0  0  0  0  0  0  0
  1  2  1  0
  1 11  1  0
  1 12  1  0
  1 13  1  0
  2  3  1  0
  2 14  1  0
  3  4  2  0
  3  5  1  0
  5  6  2  3
  5  7  1  0
  6 15  1  0
  6 16  1  0
  7  8  1  0
  7 17  1  0
  8  9  1  0
  8 10  2  0
  9 18  1  0
  9 19  1  0
  9 20  1  0
M  END

> <RosettaParamsInstructions>
M  ROOT 7
M  POLY_N_BB 7
M  POLY_CA_BB 5
M  POLY_C_BB 3
M  POLY_O_BB 4
M  POLY_IGNORE 1 10 9 14 11 12 13 18 19 20
M  POLY_UPPER 2
M  POLY_LOWER 8
M  POLY_CHG 0
M  POLY_PROPERTIES PROTEIN POLYMER ALPHA_AA ALIPHATIC
M  END

$$$$
DHA_new
     RDKit          3D

 20 19  0  0  0  0  0  0  0  0999 V2000
    2.2758   -1.6015    2.4579 C   0  0  0  0  0  0  0  0  0  0  0  0
    1.0735   -1.2364    1.6799 N   0  0  0  0  0  0  0  0  0  0  0  0
    0.8423    0.1002    1.3057 C   0  0  0  0  0  0  0  0  0  0  0  0
    1.6772    0.9826    1.6445 O   0  0  0  0  0  0  0  0  0  0  0  0
   -0.3487    0.5136    0.5258 C   0  0  0  0  0  0  0  0  0  0  0  0
   -0.4752    1.7983    0.2229 C   0  0  0  0  0  0  0  0  0  0  0  0
   -1.2852   -0.4607    0.1430 N   0  0  0  0  0  0  0  0  0  0  0  0
   -2.4571   -0.2486   -0.5898 C   0  0  0  0  0  0  0  0  0  0  0  0
   -3.3513   -1.4297   -0.9108 C   0  0  0  0  0  0  0  0  0  0  0  0
   -2.8699    0.8393   -1.0277 O   0  0  0  0  0  0  0  0  0  0  0  0
    2.0846   -2.4669    3.1054 H   0  0  0  0  0  0  0  0  0  0  0  0
    3.0842   -1.8129    1.7483 H   0  0  0  0  0  0  0  0  0  0  0  0
    2.5466   -0.7566    3.1371 H   0  0  0  0  0  0  0  0  0  0  0  0
    0.4651   -2.0416    1.4617 H   0  0  0  0  0  0  0  0  0  0  0  0
   -1.2856    2.1960   -0.3284 H   0  0  0  0  0  0  0  0  0  0  0  0
    0.3038    2.4796    0.5641 H   0  0  0  0  0  0  0  0  0  0  0  0
   -1.0876   -1.4514    0.4359 H   0  0  0  0  0  0  0  0  0  0  0  0
   -3.2181   -1.7685   -1.9351 H   0  0  0  0  0  0  0  0  0  0  0  0
   -4.4156   -1.0909   -0.7588 H   0  0  0  0  0  0  0  0  0  0  0  0
   -3.1653   -2.1962   -0.1408 H   0  0  0  0  0  0  0  0  0  0  0  0
  1  2  1  0
  1 11  1  0
  1 12  1  0
  1 13  1  0
  2  3  1  0
  2 14  1  0
  3  4  2  0
  3  5  1  0
  5  6  2  3
  5  7  1  0
  6 15  1  0
  6 16  1  0
  7  8  1  0
  7 17  1  0
  8  9  1  0
  8 10  2  0
  9 18  1  0
  9 19  1  0
  9 20  1  0
M  END

> <RosettaParamsInstructions>
M  ROOT 7
M  POLY_N_BB 7
M  POLY_CA_BB 5
M  POLY_C_BB 3
M  POLY_O_BB 4
M  POLY_IGNORE 1 10 9 14 11 12 13 18 19 20
M  POLY_UPPER 2
M  POLY_LOWER 8
M  POLY_CHG 0
M  POLY_PROPERTIES PROTEIN POLYMER ALPHA_AA ALIPHATIC
M  END

$$$$
DHA_new
     RDKit          3D

 20 19  0  0  0  0  0  0  0  0999 V2000
    2.5908   -1.0474    2.6404 C   0  0  0  0  0  0  0  0  0  0  0  0
    1.6856   -0.2277    1.8210 N   0  0  0  0  0  0  0  0  0  0  0  0
    0.5207   -0.8077    1.3355 C   0  0  0  0  0  0  0  0  0  0  0  0
    0.2772   -2.0314    1.6176 O   0  0  0  0  0  0  0  0  0  0  0  0
   -0.4335   -0.0613    0.5127 C   0  0  0  0  0  0  0  0  0  0  0  0
   -0.1900    1.1885    0.2216 C   0  0  0  0  0  0  0  0  0  0  0  0
   -1.5894   -0.7624    0.0745 N   0  0  0  0  0  0  0  0  0  0  0  0
   -2.6139   -0.2445   -0.7102 C   0  0  0  0  0  0  0  0  0  0  0  0
   -3.7608   -1.1656   -1.0665 C   0  0  0  0  0  0  0  0  0  0  0  0
   -2.6421    0.9201   -1.1321 O   0  0  0  0  0  0  0  0  0  0  0  0
    3.3209   -1.5152    1.9676 H   0  0  0  0  0  0  0  0  0  0  0  0
    1.9971   -1.8439    3.1211 H   0  0  0  0  0  0  0  0  0  0  0  0
    3.0644   -0.4239    3.4042 H   0  0  0  0  0  0  0  0  0  0  0  0
    1.9762    0.7365    1.6570 H   0  0  0  0  0  0  0  0  0  0  0  0
   -0.8160    1.8344   -0.3726 H   0  0  0  0  0  0  0  0  0  0  0  0
    0.7140    1.6912    0.5801 H   0  0  0  0  0  0  0  0  0  0  0  0
   -1.6784   -1.7907    0.3798 H   0  0  0  0  0  0  0  0  0  0  0  0
   -3.4174   -1.8088   -1.8804 H   0  0  0  0  0  0  0  0  0  0  0  0
   -3.9722   -1.7418   -0.1444 H   0  0  0  0  0  0  0  0  0  0  0  0
   -4.6397   -0.5507   -1.2859 H   0  0  0  0  0  0  0  0  0  0  0  0
  1  2  1  0
  1 11  1  0
  1 12  1  0
  1 13  1  0
  2  3  1  0
  2 14  1  0
  3  4  2  0
  3  5  1  0
  5  6  2  3
  5  7  1  0
  6 15  1  0
  6 16  1  0
  7  8  1  0
  7 17  1  0
  8  9  1  0
  8 10  2  0
  9 18  1  0
  9 19  1  0
  9 20  1  0
M  END

> <RosettaParamsInstructions>
M  ROOT 7
M  POLY_N_BB 7
M  POLY_CA_BB 5
M  POLY_C_BB 3
M  POLY_O_BB 4
M  POLY_IGNORE 1 10 9 14 11 12 13 18 19 20
M  POLY_UPPER 2
M  POLY_LOWER 8
M  POLY_CHG 0
M  POLY_PROPERTIES PROTEIN POLYMER ALPHA_AA ALIPHATIC
M  END

$$$$
DHA_new
     RDKit          3D

 20 19  0  0  0  0  0  0  0  0999 V2000
    2.2621   -1.6159    2.4079 C   0  0  0  0  0  0  0  0  0  0  0  0
    1.0707   -1.2035    1.6497 N   0  0  0  0  0  0  0  0  0  0  0  0
    0.8480    0.1254    1.2975 C   0  0  0  0  0  0  0  0  0  0  0  0
    1.6831    0.9854    1.6357 O   0  0  0  0  0  0  0  0  0  0  0  0
   -0.3515    0.5243    0.5368 C   0  0  0  0  0  0  0  0  0  0  0  0
   -0.4738    1.8171    0.2487 C   0  0  0  0  0  0  0  0  0  0  0  0
   -1.2945   -0.4401    0.1536 N   0  0  0  0  0  0  0  0  0  0  0  0
   -2.4703   -0.2420   -0.5596 C   0  0  0  0  0  0  0  0  0  0  0  0
   -3.3466   -1.4297   -0.8666 C   0  0  0  0  0  0  0  0  0  0  0  0
   -2.8551    0.8594   -0.9673 O   0  0  0  0  0  0  0  0  0  0  0  0
    2.9121   -2.1492    1.7088 H   0  0  0  0  0  0  0  0  0  0  0  0
    2.7623   -0.6969    2.8159 H   0  0  0  0  0  0  0  0  0  0  0  0
    1.8933   -2.2460    3.2395 H   0  0  0  0  0  0  0  0  0  0  0  0
    0.4391   -1.9886    1.4164 H   0  0  0  0  0  0  0  0  0  0  0  0
    0.2782    2.5113    0.5668 H   0  0  0  0  0  0  0  0  0  0  0  0
   -1.2972    2.1843   -0.2892 H   0  0  0  0  0  0  0  0  0  0  0  0
   -1.0928   -1.4477    0.4397 H   0  0  0  0  0  0  0  0  0  0  0  0
   -2.7779   -2.1422   -1.4714 H   0  0  0  0  0  0  0  0  0  0  0  0
   -4.2711   -1.1357   -1.3545 H   0  0  0  0  0  0  0  0  0  0  0  0
   -3.5248   -1.9218    0.1325 H   0  0  0  0  0  0  0  0  0  0  0  0
  1  2  1  0
  1 11  1  0
  1 12  1  0
  1 13  1  0
  2  3  1  0
  2 14  1  0
  3  4  2  0
  3  5  1  0
  5  6  2  3
  5  7  1  0
  6 15  1  0
  6 16  1  0
  7  8  1  0
  7 17  1  0
  8  9  1  0
  8 10  2  0
  9 18  1  0
  9 19  1  0
  9 20  1  0
M  END

> <RosettaParamsInstructions>
M  ROOT 7
M  POLY_N_BB 7
M  POLY_CA_BB 5
M  POLY_C_BB 3
M  POLY_O_BB 4
M  POLY_IGNORE 1 10 9 14 11 12 13 18 19 20
M  POLY_UPPER 2
M  POLY_LOWER 8
M  POLY_CHG 0
M  POLY_PROPERTIES PROTEIN POLYMER ALPHA_AA ALIPHATIC
M  END

$$$$
DHA_new
     RDKit          3D

 20 19  0  0  0  0  0  0  0  0999 V2000
    2.6940   -1.0574    2.5070 C   0  0  0  0  0  0  0  0  0  0  0  0
    1.6883   -0.2035    1.8556 N   0  0  0  0  0  0  0  0  0  0  0  0
    0.5847   -0.8208    1.2808 C   0  0  0  0  0  0  0  0  0  0  0  0
    0.4208   -2.0891    1.3013 O   0  0  0  0  0  0  0  0  0  0  0  0
   -0.4735   -0.0572    0.6075 C   0  0  0  0  0  0  0  0  0  0  0  0
   -0.3847    1.2403    0.5414 C   0  0  0  0  0  0  0  0  0  0  0  0
   -1.5796   -0.7496    0.0379 N   0  0  0  0  0  0  0  0  0  0  0  0
   -2.6775   -0.2235   -0.6367 C   0  0  0  0  0  0  0  0  0  0  0  0
   -3.7211   -1.2061   -1.1445 C   0  0  0  0  0  0  0  0  0  0  0  0
   -2.8770    1.0150   -0.8621 O   0  0  0  0  0  0  0  0  0  0  0  0
    3.7091   -0.8236    2.1093 H   0  0  0  0  0  0  0  0  0  0  0  0
    2.6389   -0.9665    3.6137 H   0  0  0  0  0  0  0  0  0  0  0  0
    2.5225   -2.1300    2.2676 H   0  0  0  0  0  0  0  0  0  0  0  0
    1.8640    0.8009    1.8655 H   0  0  0  0  0  0  0  0  0  0  0  0
    0.4688    1.7656    0.9817 H   0  0  0  0  0  0  0  0  0  0  0  0
   -1.0948    1.9006    0.0763 H   0  0  0  0  0  0  0  0  0  0  0  0
   -1.5636   -1.8132    0.1428 H   0  0  0  0  0  0  0  0  0  0  0  0
   -3.6870   -2.1416   -0.5587 H   0  0  0  0  0  0  0  0  0  0  0  0
   -4.6905   -0.6787   -1.0446 H   0  0  0  0  0  0  0  0  0  0  0  0
   -3.4484   -1.4137   -2.2010 H   0  0  0  0  0  0  0  0  0  0  0  0
  1  2  1  0
  1 11  1  0
  1 12  1  0
  1 13  1  0
  2  3  1  0
  2 14  1  0
  3  4  2  0
  3  5  1  0
  5  6  2  3
  5  7  1  0
  6 15  1  0
  6 16  1  0
  7  8  1  0
  7 17  1  0
  8  9  1  0
  8 10  2  0
  9 18  1  0
  9 19  1  0
  9 20  1  0
M  END

> <RosettaParamsInstructions>
M  ROOT 7
M  POLY_N_BB 7
M  POLY_CA_BB 5
M  POLY_C_BB 3
M  POLY_O_BB 4
M  POLY_IGNORE 1 10 9 14 11 12 13 18 19 20
M  POLY_UPPER 2
M  POLY_LOWER 8
M  POLY_CHG 0
M  POLY_PROPERTIES PROTEIN POLYMER ALPHA_AA ALIPHATIC
M  END

$$$$
DHA_new
     RDKit          3D

 20 19  0  0  0  0  0  0  0  0999 V2000
    2.6699   -1.0459    2.5521 C   0  0  0  0  0  0  0  0  0  0  0  0
    1.6738   -0.2060    1.8637 N   0  0  0  0  0  0  0  0  0  0  0  0
    0.5778   -0.8363    1.3049 C   0  0  0  0  0  0  0  0  0  0  0  0
    0.4282   -2.0816    1.3767 O   0  0  0  0  0  0  0  0  0  0  0  0
   -0.4748   -0.0793    0.5942 C   0  0  0  0  0  0  0  0  0  0  0  0
   -0.3314    1.2208    0.5118 C   0  0  0  0  0  0  0  0  0  0  0  0
   -1.5601   -0.8136    0.0549 N   0  0  0  0  0  0  0  0  0  0  0  0
   -2.6268   -0.2621   -0.6377 C   0  0  0  0  0  0  0  0  0  0  0  0
   -3.7442   -1.1316   -1.1784 C   0  0  0  0  0  0  0  0  0  0  0  0
   -2.7644    0.9430   -0.8719 O   0  0  0  0  0  0  0  0  0  0  0  0
    2.3715   -1.2708    3.5821 H   0  0  0  0  0  0  0  0  0  0  0  0
    2.7753   -1.9759    1.9581 H   0  0  0  0  0  0  0  0  0  0  0  0
    3.6643   -0.5562    2.5483 H   0  0  0  0  0  0  0  0  0  0  0  0
    1.8613    0.8059    1.8437 H   0  0  0  0  0  0  0  0  0  0  0  0
    0.5192    1.7648    0.9385 H   0  0  0  0  0  0  0  0  0  0  0  0
   -1.0489    1.8347    0.0149 H   0  0  0  0  0  0  0  0  0  0  0  0
   -1.5605   -1.8757    0.1904 H   0  0  0  0  0  0  0  0  0  0  0  0
   -4.7181   -0.7230   -0.9105 H   0  0  0  0  0  0  0  0  0  0  0  0
   -3.6730   -1.2237   -2.2667 H   0  0  0  0  0  0  0  0  0  0  0  0
   -3.6455   -2.1396   -0.7281 H   0  0  0  0  0  0  0  0  0  0  0  0
  1  2  1  0
  1 11  1  0
  1 12  1  0
  1 13  1  0
  2  3  1  0
  2 14  1  0
  3  4  2  0
  3  5  1  0
  5  6  2  3
  5  7  1  0
  6 15  1  0
  6 16  1  0
  7  8  1  0
  7 17  1  0
  8  9  1  0
  8 10  2  0
  9 18  1  0
  9 19  1  0
  9 20  1  0
M  END

> <RosettaParamsInstructions>
M  ROOT 7
M  POLY_N_BB 7
M  POLY_CA_BB 5
M  POLY_C_BB 3
M  POLY_O_BB 4
M  POLY_IGNORE 1 10 9 14 11 12 13 18 19 20
M  POLY_UPPER 2
M  POLY_LOWER 8
M  POLY_CHG 0
M  POLY_PROPERTIES PROTEIN POLYMER ALPHA_AA ALIPHATIC
M  END

$$$$
DHA_new
     RDKit          3D

 20 19  0  0  0  0  0  0  0  0999 V2000
    2.6613   -1.0446    2.5742 C   0  0  0  0  0  0  0  0  0  0  0  0
    1.6682   -0.2072    1.8982 N   0  0  0  0  0  0  0  0  0  0  0  0
    0.5674   -0.8266    1.2978 C   0  0  0  0  0  0  0  0  0  0  0  0
    0.4651   -2.0924    1.3583 O   0  0  0  0  0  0  0  0  0  0  0  0
   -0.4984   -0.0755    0.5866 C   0  0  0  0  0  0  0  0  0  0  0  0
   -0.4040    1.2208    0.5185 C   0  0  0  0  0  0  0  0  0  0  0  0
   -1.5589   -0.7937    0.0200 N   0  0  0  0  0  0  0  0  0  0  0  0
   -2.6304   -0.2421   -0.6755 C   0  0  0  0  0  0  0  0  0  0  0  0
   -3.6885   -1.1622   -1.2213 C   0  0  0  0  0  0  0  0  0  0  0  0
   -2.7829    0.9706   -0.8836 O   0  0  0  0  0  0  0  0  0  0  0  0
    2.2792   -1.3484    3.5617 H   0  0  0  0  0  0  0  0  0  0  0  0
    3.6171   -0.5198    2.7256 H   0  0  0  0  0  0  0  0  0  0  0  0
    2.8823   -1.9532    1.9478 H   0  0  0  0  0  0  0  0  0  0  0  0
    1.8537    0.7964    1.9128 H   0  0  0  0  0  0  0  0  0  0  0  0
   -1.0981    1.8702    0.0399 H   0  0  0  0  0  0  0  0  0  0  0  0
    0.4543    1.7525    0.9818 H   0  0  0  0  0  0  0  0  0  0  0  0
   -1.5379   -1.8664    0.1357 H   0  0  0  0  0  0  0  0  0  0  0  0
   -4.6767   -0.6490   -1.1309 H   0  0  0  0  0  0  0  0  0  0  0  0
   -3.6988   -2.0892   -0.6327 H   0  0  0  0  0  0  0  0  0  0  0  0
   -3.4804   -1.3926   -2.2740 H   0  0  0  0  0  0  0  0  0  0  0  0
  1  2  1  0
  1 11  1  0
  1 12  1  0
  1 13  1  0
  2  3  1  0
  2 14  1  0
  3  4  2  0
  3  5  1  0
  5  6  2  3
  5  7  1  0
  6 15  1  0
  6 16  1  0
  7  8  1  0
  7 17  1  0
  8  9  1  0
  8 10  2  0
  9 18  1  0
  9 19  1  0
  9 20  1  0
M  END

> <RosettaParamsInstructions>
M  ROOT 7
M  POLY_N_BB 7
M  POLY_CA_BB 5
M  POLY_C_BB 3
M  POLY_O_BB 4
M  POLY_IGNORE 1 10 9 14 11 12 13 18 19 20
M  POLY_UPPER 2
M  POLY_LOWER 8
M  POLY_CHG 0
M  POLY_PROPERTIES PROTEIN POLYMER ALPHA_AA ALIPHATIC
M  END

$$$$
DHA_new
     RDKit          3D

 20 19  0  0  0  0  0  0  0  0999 V2000
    2.7250   -1.1000    2.4829 C   0  0  0  0  0  0  0  0  0  0  0  0
    1.6790   -0.2536    1.9115 N   0  0  0  0  0  0  0  0  0  0  0  0
    0.5775   -0.8176    1.2401 C   0  0  0  0  0  0  0  0  0  0  0  0
    0.5177   -2.0808    1.1446 O   0  0  0  0  0  0  0  0  0  0  0  0
   -0.5275   -0.0507    0.6303 C   0  0  0  0  0  0  0  0  0  0  0  0
   -0.5284    1.2624    0.6927 C   0  0  0  0  0  0  0  0  0  0  0  0
   -1.5590   -0.7597   -0.0071 N   0  0  0  0  0  0  0  0  0  0  0  0
   -2.6652   -0.2175   -0.6282 C   0  0  0  0  0  0  0  0  0  0  0  0
   -3.6477   -1.2039   -1.2502 C   0  0  0  0  0  0  0  0  0  0  0  0
   -2.9250    0.9852   -0.7226 O   0  0  0  0  0  0  0  0  0  0  0  0
    3.0420   -0.6003    3.4337 H   0  0  0  0  0  0  0  0  0  0  0  0
    3.6185   -1.1280    1.8404 H   0  0  0  0  0  0  0  0  0  0  0  0
    2.3848   -2.1273    2.6444 H   0  0  0  0  0  0  0  0  0  0  0  0
    1.7758    0.7770    2.0174 H   0  0  0  0  0  0  0  0  0  0  0  0
   -1.2994    1.8618    0.2703 H   0  0  0  0  0  0  0  0  0  0  0  0
    0.3128    1.7808    1.2096 H   0  0  0  0  0  0  0  0  0  0  0  0
   -1.4521   -1.8329    0.0041 H   0  0  0  0  0  0  0  0  0  0  0  0
   -4.4471   -1.3341   -0.5090 H   0  0  0  0  0  0  0  0  0  0  0  0
   -4.0738   -0.6932   -2.1370 H   0  0  0  0  0  0  0  0  0  0  0  0
   -3.1144   -2.1196   -1.5268 H   0  0  0  0  0  0  0  0  0  0  0  0
  1  2  1  0
  1 11  1  0
  1 12  1  0
  1 13  1  0
  2  3  1  0
  2 14  1  0
  3  4  2  0
  3  5  1  0
  5  6  2  3
  5  7  1  0
  6 15  1  0
  6 16  1  0
  7  8  1  0
  7 17  1  0
  8  9  1  0
  8 10  2  0
  9 18  1  0
  9 19  1  0
  9 20  1  0
M  END

> <RosettaParamsInstructions>
M  ROOT 7
M  POLY_N_BB 7
M  POLY_CA_BB 5
M  POLY_C_BB 3
M  POLY_O_BB 4
M  POLY_IGNORE 1 10 9 14 11 12 13 18 19 20
M  POLY_UPPER 2
M  POLY_LOWER 8
M  POLY_CHG 0
M  POLY_PROPERTIES PROTEIN POLYMER ALPHA_AA ALIPHATIC
M  END

$$$$
DHA_new
     RDKit          3D

 20 19  0  0  0  0  0  0  0  0999 V2000
    2.7150   -1.0294    2.5749 C   0  0  0  0  0  0  0  0  0  0  0  0
    1.7132   -0.2153    1.8404 N   0  0  0  0  0  0  0  0  0  0  0  0
    0.5648   -0.8241    1.3059 C   0  0  0  0  0  0  0  0  0  0  0  0
    0.4172   -2.0607    1.4681 O   0  0  0  0  0  0  0  0  0  0  0  0
   -0.4746   -0.0826    0.5644 C   0  0  0  0  0  0  0  0  0  0  0  0
   -0.3395    1.1971    0.3865 C   0  0  0  0  0  0  0  0  0  0  0  0
   -1.5780   -0.8047    0.0781 N   0  0  0  0  0  0  0  0  0  0  0  0
   -2.6452   -0.2639   -0.6392 C   0  0  0  0  0  0  0  0  0  0  0  0
   -3.7901   -1.1184   -1.1227 C   0  0  0  0  0  0  0  0  0  0  0  0
   -2.7240    0.9418   -0.9245 O   0  0  0  0  0  0  0  0  0  0  0  0
    2.5046   -2.0949    2.3452 H   0  0  0  0  0  0  0  0  0  0  0  0
    2.6287   -0.8895    3.6526 H   0  0  0  0  0  0  0  0  0  0  0  0
    3.7327   -0.8204    2.2050 H   0  0  0  0  0  0  0  0  0  0  0  0
    1.9832    0.7878    1.7946 H   0  0  0  0  0  0  0  0  0  0  0  0
   -1.0156    1.8720   -0.1342 H   0  0  0  0  0  0  0  0  0  0  0  0
    0.5784    1.6767    0.8152 H   0  0  0  0  0  0  0  0  0  0  0  0
   -1.6344   -1.8680    0.2578 H   0  0  0  0  0  0  0  0  0  0  0  0
   -3.6094   -2.1821   -0.8732 H   0  0  0  0  0  0  0  0  0  0  0  0
   -4.7279   -0.8167   -0.6358 H   0  0  0  0  0  0  0  0  0  0  0  0
   -3.9053   -1.0572   -2.2183 H   0  0  0  0  0  0  0  0  0  0  0  0
  1  2  1  0
  1 11  1  0
  1 12  1  0
  1 13  1  0
  2  3  1  0
  2 14  1  0
  3  4  2  0
  3  5  1  0
  5  6  2  3
  5  7  1  0
  6 15  1  0
  6 16  1  0
  7  8  1  0
  7 17  1  0
  8  9  1  0
  8 10  2  0
  9 18  1  0
  9 19  1  0
  9 20  1  0
M  END

> <RosettaParamsInstructions>
M  ROOT 7
M  POLY_N_BB 7
M  POLY_CA_BB 5
M  POLY_C_BB 3
M  POLY_O_BB 4
M  POLY_IGNORE 1 10 9 14 11 12 13 18 19 20
M  POLY_UPPER 2
M  POLY_LOWER 8
M  POLY_CHG 0
M  POLY_PROPERTIES PROTEIN POLYMER ALPHA_AA ALIPHATIC
M  END

$$$$
DHA_new
     RDKit          3D

 20 19  0  0  0  0  0  0  0  0999 V2000
    2.6422   -1.0474    2.5780 C   0  0  0  0  0  0  0  0  0  0  0  0
    1.6625   -0.2334    1.8513 N   0  0  0  0  0  0  0  0  0  0  0  0
    0.5484   -0.8513    1.3147 C   0  0  0  0  0  0  0  0  0  0  0  0
    0.3513   -2.0814    1.4301 O   0  0  0  0  0  0  0  0  0  0  0  0
   -0.4715   -0.0682    0.5702 C   0  0  0  0  0  0  0  0  0  0  0  0
   -0.3229    1.2200    0.4154 C   0  0  0  0  0  0  0  0  0  0  0  0
   -1.5808   -0.7720    0.0524 N   0  0  0  0  0  0  0  0  0  0  0  0
   -2.6201   -0.2318   -0.6579 C   0  0  0  0  0  0  0  0  0  0  0  0
   -3.7320   -1.1373   -1.1395 C   0  0  0  0  0  0  0  0  0  0  0  0
   -2.7512    0.9577   -0.9580 O   0  0  0  0  0  0  0  0  0  0  0  0
    3.6599   -0.6685    2.2801 H   0  0  0  0  0  0  0  0  0  0  0  0
    2.5385   -2.1045    2.2593 H   0  0  0  0  0  0  0  0  0  0  0  0
    2.4973   -1.0075    3.6628 H   0  0  0  0  0  0  0  0  0  0  0  0
    1.8682    0.7593    1.7857 H   0  0  0  0  0  0  0  0  0  0  0  0
   -1.0017    1.8502   -0.1005 H   0  0  0  0  0  0  0  0  0  0  0  0
    0.5527    1.7443    0.8300 H   0  0  0  0  0  0  0  0  0  0  0  0
   -1.5986   -1.8254    0.2397 H   0  0  0  0  0  0  0  0  0  0  0  0
   -4.2481   -0.7254   -2.0075 H   0  0  0  0  0  0  0  0  0  0  0  0
   -4.3661   -1.3276   -0.2612 H   0  0  0  0  0  0  0  0  0  0  0  0
   -3.2345   -2.1020   -1.4042 H   0  0  0  0  0  0  0  0  0  0  0  0
  1  2  1  0
  1 11  1  0
  1 12  1  0
  1 13  1  0
  2  3  1  0
  2 14  1  0
  3  4  2  0
  3  5  1  0
  5  6  2  3
  5  7  1  0
  6 15  1  0
  6 16  1  0
  7  8  1  0
  7 17  1  0
  8  9  1  0
  8 10  2  0
  9 18  1  0
  9 19  1  0
  9 20  1  0
M  END

> <RosettaParamsInstructions>
M  ROOT 7
M  POLY_N_BB 7
M  POLY_CA_BB 5
M  POLY_C_BB 3
M  POLY_O_BB 4
M  POLY_IGNORE 1 10 9 14 11 12 13 18 19 20
M  POLY_UPPER 2
M  POLY_LOWER 8
M  POLY_CHG 0
M  POLY_PROPERTIES PROTEIN POLYMER ALPHA_AA ALIPHATIC
M  END

$$$$
DHA_new
     RDKit          3D

 20 19  0  0  0  0  0  0  0  0999 V2000
    2.6790   -1.0872    2.5984 C   0  0  0  0  0  0  0  0  0  0  0  0
    1.7114   -0.2255    1.8873 N   0  0  0  0  0  0  0  0  0  0  0  0
    0.5565   -0.7839    1.3026 C   0  0  0  0  0  0  0  0  0  0  0  0
    0.4062   -2.0328    1.4222 O   0  0  0  0  0  0  0  0  0  0  0  0
   -0.4737   -0.0417    0.5746 C   0  0  0  0  0  0  0  0  0  0  0  0
   -0.3485    1.2465    0.4337 C   0  0  0  0  0  0  0  0  0  0  0  0
   -1.5540   -0.7683    0.0615 N   0  0  0  0  0  0  0  0  0  0  0  0
   -2.6293   -0.2451   -0.6565 C   0  0  0  0  0  0  0  0  0  0  0  0
   -3.7331   -1.1752   -1.1495 C   0  0  0  0  0  0  0  0  0  0  0  0
   -2.8193    0.9409   -0.9653 O   0  0  0  0  0  0  0  0  0  0  0  0
    3.4907   -0.4458    2.9975 H   0  0  0  0  0  0  0  0  0  0  0  0
    2.2015   -1.6406    3.4095 H   0  0  0  0  0  0  0  0  0  0  0  0
    3.0561   -1.8158    1.8471 H   0  0  0  0  0  0  0  0  0  0  0  0
    1.8868    0.7975    1.8200 H   0  0  0  0  0  0  0  0  0  0  0  0
    0.5281    1.7702    0.8609 H   0  0  0  0  0  0  0  0  0  0  0  0
   -1.0858    1.8218   -0.0947 H   0  0  0  0  0  0  0  0  0  0  0  0
   -1.5538   -1.8353    0.2392 H   0  0  0  0  0  0  0  0  0  0  0  0
   -3.6166   -1.2768   -2.2463 H   0  0  0  0  0  0  0  0  0  0  0  0
   -4.6946   -0.6913   -0.9116 H   0  0  0  0  0  0  0  0  0  0  0  0
   -3.6141   -2.1638   -0.6899 H   0  0  0  0  0  0  0  0  0  0  0  0
  1  2  1  0
  1 11  1  0
  1 12  1  0
  1 13  1  0
  2  3  1  0
  2 14  1  0
  3  4  2  0
  3  5  1  0
  5  6  2  3
  5  7  1  0
  6 15  1  0
  6 16  1  0
  7  8  1  0
  7 17  1  0
  8  9  1  0
  8 10  2  0
  9 18  1  0
  9 19  1  0
  9 20  1  0
M  END

> <RosettaParamsInstructions>
M  ROOT 7
M  POLY_N_BB 7
M  POLY_CA_BB 5
M  POLY_C_BB 3
M  POLY_O_BB 4
M  POLY_IGNORE 1 10 9 14 11 12 13 18 19 20
M  POLY_UPPER 2
M  POLY_LOWER 8
M  POLY_CHG 0
M  POLY_PROPERTIES PROTEIN POLYMER ALPHA_AA ALIPHATIC
M  END

$$$$
DHA_new
     RDKit          3D

 20 19  0  0  0  0  0  0  0  0999 V2000
    2.2738   -1.5887    2.4249 C   0  0  0  0  0  0  0  0  0  0  0  0
    1.0661   -1.2478    1.6654 N   0  0  0  0  0  0  0  0  0  0  0  0
    0.8240    0.0860    1.3296 C   0  0  0  0  0  0  0  0  0  0  0  0
    1.6489    0.9714    1.6862 O   0  0  0  0  0  0  0  0  0  0  0  0
   -0.3513    0.5069    0.5775 C   0  0  0  0  0  0  0  0  0  0  0  0
   -0.5163    1.7898    0.2945 C   0  0  0  0  0  0  0  0  0  0  0  0
   -1.2883   -0.4469    0.1650 N   0  0  0  0  0  0  0  0  0  0  0  0
   -2.4819   -0.2428   -0.5664 C   0  0  0  0  0  0  0  0  0  0  0  0
   -3.3465   -1.4283   -0.9028 C   0  0  0  0  0  0  0  0  0  0  0  0
   -2.8912    0.8564   -0.9665 O   0  0  0  0  0  0  0  0  0  0  0  0
    3.1020   -1.0170    1.9443 H   0  0  0  0  0  0  0  0  0  0  0  0
    2.2102   -1.2410    3.4726 H   0  0  0  0  0  0  0  0  0  0  0  0
    2.5185   -2.6530    2.3319 H   0  0  0  0  0  0  0  0  0  0  0  0
    0.4428   -2.0346    1.4131 H   0  0  0  0  0  0  0  0  0  0  0  0
    0.2599    2.4736    0.6516 H   0  0  0  0  0  0  0  0  0  0  0  0
   -1.3303    2.1841   -0.2413 H   0  0  0  0  0  0  0  0  0  0  0  0
   -1.1117   -1.4637    0.4163 H   0  0  0  0  0  0  0  0  0  0  0  0
   -3.9529   -1.6458   -0.0227 H   0  0  0  0  0  0  0  0  0  0  0  0
   -2.6855   -2.2904   -1.1643 H   0  0  0  0  0  0  0  0  0  0  0  0
   -3.9969   -1.2204   -1.7683 H   0  0  0  0  0  0  0  0  0  0  0  0
  1  2  1  0
  1 11  1  0
  1 12  1  0
  1 13  1  0
  2  3  1  0
  2 14  1  0
  3  4  2  0
  3  5  1  0
  5  6  2  3
  5  7  1  0
  6 15  1  0
  6 16  1  0
  7  8  1  0
  7 17  1  0
  8  9  1  0
  8 10  2  0
  9 18  1  0
  9 19  1  0
  9 20  1  0
M  END

> <RosettaParamsInstructions>
M  ROOT 7
M  POLY_N_BB 7
M  POLY_CA_BB 5
M  POLY_C_BB 3
M  POLY_O_BB 4
M  POLY_IGNORE 1 10 9 14 11 12 13 18 19 20
M  POLY_UPPER 2
M  POLY_LOWER 8
M  POLY_CHG 0
M  POLY_PROPERTIES PROTEIN POLYMER ALPHA_AA ALIPHATIC
M  END

$$$$
DHA_new
     RDKit          3D

 20 19  0  0  0  0  0  0  0  0999 V2000
    2.6603   -1.0570    2.5566 C   0  0  0  0  0  0  0  0  0  0  0  0
    1.6759   -0.2185    1.8435 N   0  0  0  0  0  0  0  0  0  0  0  0
    0.5516   -0.8352    1.2927 C   0  0  0  0  0  0  0  0  0  0  0  0
    0.4067   -2.0924    1.4191 O   0  0  0  0  0  0  0  0  0  0  0  0
   -0.4630   -0.0586    0.5724 C   0  0  0  0  0  0  0  0  0  0  0  0
   -0.3242    1.2323    0.4368 C   0  0  0  0  0  0  0  0  0  0  0  0
   -1.5598   -0.7846    0.0560 N   0  0  0  0  0  0  0  0  0  0  0  0
   -2.6204   -0.2450   -0.6514 C   0  0  0  0  0  0  0  0  0  0  0  0
   -3.7166   -1.1454   -1.1382 C   0  0  0  0  0  0  0  0  0  0  0  0
   -2.7356    0.9525   -0.9191 O   0  0  0  0  0  0  0  0  0  0  0  0
    2.9445   -1.8452    1.8507 H   0  0  0  0  0  0  0  0  0  0  0  0
    3.5024   -0.4598    2.9461 H   0  0  0  0  0  0  0  0  0  0  0  0
    2.1389   -1.5071    3.4217 H   0  0  0  0  0  0  0  0  0  0  0  0
    1.8907    0.7921    1.7991 H   0  0  0  0  0  0  0  0  0  0  0  0
   -0.9985    1.9021   -0.0677 H   0  0  0  0  0  0  0  0  0  0  0  0
    0.5492    1.7628    0.8560 H   0  0  0  0  0  0  0  0  0  0  0  0
   -1.5990   -1.8543    0.2124 H   0  0  0  0  0  0  0  0  0  0  0  0
   -3.8288   -2.0012   -0.4099 H   0  0  0  0  0  0  0  0  0  0  0  0
   -3.4220   -1.5957   -2.1209 H   0  0  0  0  0  0  0  0  0  0  0  0
   -4.6586   -0.5941   -1.2148 H   0  0  0  0  0  0  0  0  0  0  0  0
  1  2  1  0
  1 11  1  0
  1 12  1  0
  1 13  1  0
  2  3  1  0
  2 14  1  0
  3  4  2  0
  3  5  1  0
  5  6  2  3
  5  7  1  0
  6 15  1  0
  6 16  1  0
  7  8  1  0
  7 17  1  0
  8  9  1  0
  8 10  2  0
  9 18  1  0
  9 19  1  0
  9 20  1  0
M  END

> <RosettaParamsInstructions>
M  ROOT 7
M  POLY_N_BB 7
M  POLY_CA_BB 5
M  POLY_C_BB 3
M  POLY_O_BB 4
M  POLY_IGNORE 1 10 9 14 11 12 13 18 19 20
M  POLY_UPPER 2
M  POLY_LOWER 8
M  POLY_CHG 0
M  POLY_PROPERTIES PROTEIN POLYMER ALPHA_AA ALIPHATIC
M  END

$$$$
DHA_new
     RDKit          3D

 20 19  0  0  0  0  0  0  0  0999 V2000
    2.6826   -1.0675    2.5611 C   0  0  0  0  0  0  0  0  0  0  0  0
    1.6927   -0.2318    1.8541 N   0  0  0  0  0  0  0  0  0  0  0  0
    0.5591   -0.8428    1.2927 C   0  0  0  0  0  0  0  0  0  0  0  0
    0.4349   -2.1005    1.4198 O   0  0  0  0  0  0  0  0  0  0  0  0
   -0.4679   -0.0461    0.5704 C   0  0  0  0  0  0  0  0  0  0  0  0
   -0.3512    1.2399    0.4345 C   0  0  0  0  0  0  0  0  0  0  0  0
   -1.5473   -0.7792    0.0598 N   0  0  0  0  0  0  0  0  0  0  0  0
   -2.6350   -0.2522   -0.6551 C   0  0  0  0  0  0  0  0  0  0  0  0
   -3.7409   -1.1525   -1.1546 C   0  0  0  0  0  0  0  0  0  0  0  0
   -2.7831    0.9428   -0.9302 O   0  0  0  0  0  0  0  0  0  0  0  0
    3.4784   -1.4086    1.8774 H   0  0  0  0  0  0  0  0  0  0  0  0
    3.0843   -0.4703    3.4054 H   0  0  0  0  0  0  0  0  0  0  0  0
    2.1717   -1.9422    3.0153 H   0  0  0  0  0  0  0  0  0  0  0  0
    1.9013    0.7844    1.8143 H   0  0  0  0  0  0  0  0  0  0  0  0
   -1.0456    1.8472   -0.0647 H   0  0  0  0  0  0  0  0  0  0  0  0
    0.5147    1.7556    0.8556 H   0  0  0  0  0  0  0  0  0  0  0  0
   -1.5720   -1.8412    0.2136 H   0  0  0  0  0  0  0  0  0  0  0  0
   -3.3798   -2.1870   -1.1043 H   0  0  0  0  0  0  0  0  0  0  0  0
   -3.9654   -0.8476   -2.1852 H   0  0  0  0  0  0  0  0  0  0  0  0
   -4.6380   -1.0526   -0.5392 H   0  0  0  0  0  0  0  0  0  0  0  0
  1  2  1  0
  1 11  1  0
  1 12  1  0
  1 13  1  0
  2  3  1  0
  2 14  1  0
  3  4  2  0
  3  5  1  0
  5  6  2  3
  5  7  1  0
  6 15  1  0
  6 16  1  0
  7  8  1  0
  7 17  1  0
  8  9  1  0
  8 10  2  0
  9 18  1  0
  9 19  1  0
  9 20  1  0
M  END

> <RosettaParamsInstructions>
M  ROOT 7
M  POLY_N_BB 7
M  POLY_CA_BB 5
M  POLY_C_BB 3
M  POLY_O_BB 4
M  POLY_IGNORE 1 10 9 14 11 12 13 18 19 20
M  POLY_UPPER 2
M  POLY_LOWER 8
M  POLY_CHG 0
M  POLY_PROPERTIES PROTEIN POLYMER ALPHA_AA ALIPHATIC
M  END

$$$$
DHA_new
     RDKit          3D

 20 19  0  0  0  0  0  0  0  0999 V2000
    2.3092   -1.6341    2.3683 C   0  0  0  0  0  0  0  0  0  0  0  0
    1.0965   -1.2334    1.6184 N   0  0  0  0  0  0  0  0  0  0  0  0
    0.8061    0.1128    1.3936 C   0  0  0  0  0  0  0  0  0  0  0  0
    1.5888    0.9876    1.8367 O   0  0  0  0  0  0  0  0  0  0  0  0
   -0.4105    0.5092    0.6415 C   0  0  0  0  0  0  0  0  0  0  0  0
   -0.6288    1.7922    0.4628 C   0  0  0  0  0  0  0  0  0  0  0  0
   -1.3076   -0.4511    0.1321 N   0  0  0  0  0  0  0  0  0  0  0  0
   -2.4790   -0.2062   -0.5871 C   0  0  0  0  0  0  0  0  0  0  0  0
   -3.2560   -1.4416   -1.0139 C   0  0  0  0  0  0  0  0  0  0  0  0
   -2.9134    0.9067   -0.8908 O   0  0  0  0  0  0  0  0  0  0  0  0
    2.0291   -1.6971    3.4340 H   0  0  0  0  0  0  0  0  0  0  0  0
    3.0447   -0.8155    2.1607 H   0  0  0  0  0  0  0  0  0  0  0  0
    2.6719   -2.6200    2.0342 H   0  0  0  0  0  0  0  0  0  0  0  0
    0.5228   -2.0315    1.2993 H   0  0  0  0  0  0  0  0  0  0  0  0
   -1.4536    2.1757   -0.0513 H   0  0  0  0  0  0  0  0  0  0  0  0
    0.0831    2.5017    0.8689 H   0  0  0  0  0  0  0  0  0  0  0  0
   -1.0221   -1.4599    0.3417 H   0  0  0  0  0  0  0  0  0  0  0  0
   -3.1199   -2.2142   -0.2569 H   0  0  0  0  0  0  0  0  0  0  0  0
   -2.8519   -1.7168   -2.0059 H   0  0  0  0  0  0  0  0  0  0  0  0
   -4.3159   -1.1168   -1.0456 H   0  0  0  0  0  0  0  0  0  0  0  0
  1  2  1  0
  1 11  1  0
  1 12  1  0
  1 13  1  0
  2  3  1  0
  2 14  1  0
  3  4  2  0
  3  5  1  0
  5  6  2  3
  5  7  1  0
  6 15  1  0
  6 16  1  0
  7  8  1  0
  7 17  1  0
  8  9  1  0
  8 10  2  0
  9 18  1  0
  9 19  1  0
  9 20  1  0
M  END

> <RosettaParamsInstructions>
M  ROOT 7
M  POLY_N_BB 7
M  POLY_CA_BB 5
M  POLY_C_BB 3
M  POLY_O_BB 4
M  POLY_IGNORE 1 10 9 14 11 12 13 18 19 20
M  POLY_UPPER 2
M  POLY_LOWER 8
M  POLY_CHG 0
M  POLY_PROPERTIES PROTEIN POLYMER ALPHA_AA ALIPHATIC
M  END

$$$$
DHA_new
     RDKit          3D

 20 19  0  0  0  0  0  0  0  0999 V2000
    2.3259   -1.5952    2.3915 C   0  0  0  0  0  0  0  0  0  0  0  0
    1.1371   -1.2544    1.6613 N   0  0  0  0  0  0  0  0  0  0  0  0
    0.8341    0.0766    1.3310 C   0  0  0  0  0  0  0  0  0  0  0  0
    1.6370    0.9754    1.6933 O   0  0  0  0  0  0  0  0  0  0  0  0
   -0.3597    0.5177    0.5862 C   0  0  0  0  0  0  0  0  0  0  0  0
   -0.5301    1.7953    0.3392 C   0  0  0  0  0  0  0  0  0  0  0  0
   -1.2883   -0.4430    0.1581 N   0  0  0  0  0  0  0  0  0  0  0  0
   -2.4750   -0.2335   -0.5556 C   0  0  0  0  0  0  0  0  0  0  0  0
   -3.3650   -1.4078   -0.9366 C   0  0  0  0  0  0  0  0  0  0  0  0
   -2.9330    0.8645   -0.9490 O   0  0  0  0  0  0  0  0  0  0  0  0
    2.1295   -2.4984    3.0086 H   0  0  0  0  0  0  0  0  0  0  0  0
    3.1978   -1.7901    1.7343 H   0  0  0  0  0  0  0  0  0  0  0  0
    2.6048   -0.7466    3.0779 H   0  0  0  0  0  0  0  0  0  0  0  0
    0.5048   -2.0247    1.3833 H   0  0  0  0  0  0  0  0  0  0  0  0
   -1.3640    2.1597   -0.1876 H   0  0  0  0  0  0  0  0  0  0  0  0
    0.2024    2.5083    0.6821 H   0  0  0  0  0  0  0  0  0  0  0  0
   -1.1028   -1.4830    0.3864 H   0  0  0  0  0  0  0  0  0  0  0  0
   -4.3837   -1.2459   -0.5459 H   0  0  0  0  0  0  0  0  0  0  0  0
   -3.4029   -1.4948   -2.0357 H   0  0  0  0  0  0  0  0  0  0  0  0
   -2.9757   -2.3324   -0.4819 H   0  0  0  0  0  0  0  0  0  0  0  0
  1  2  1  0
  1 11  1  0
  1 12  1  0
  1 13  1  0
  2  3  1  0
  2 14  1  0
  3  4  2  0
  3  5  1  0
  5  6  2  3
  5  7  1  0
  6 15  1  0
  6 16  1  0
  7  8  1  0
  7 17  1  0
  8  9  1  0
  8 10  2  0
  9 18  1  0
  9 19  1  0
  9 20  1  0
M  END

> <RosettaParamsInstructions>
M  ROOT 7
M  POLY_N_BB 7
M  POLY_CA_BB 5
M  POLY_C_BB 3
M  POLY_O_BB 4
M  POLY_IGNORE 1 10 9 14 11 12 13 18 19 20
M  POLY_UPPER 2
M  POLY_LOWER 8
M  POLY_CHG 0
M  POLY_PROPERTIES PROTEIN POLYMER ALPHA_AA ALIPHATIC
M  END

$$$$
DHA_new
     RDKit          3D

 20 19  0  0  0  0  0  0  0  0999 V2000
    2.6579   -1.0912    2.5841 C   0  0  0  0  0  0  0  0  0  0  0  0
    1.6902   -0.2336    1.8716 N   0  0  0  0  0  0  0  0  0  0  0  0
    0.5487   -0.7956    1.2939 C   0  0  0  0  0  0  0  0  0  0  0  0
    0.4002   -2.0598    1.4177 O   0  0  0  0  0  0  0  0  0  0  0  0
   -0.4675   -0.0186    0.5663 C   0  0  0  0  0  0  0  0  0  0  0  0
   -0.3068    1.2657    0.4464 C   0  0  0  0  0  0  0  0  0  0  0  0
   -1.5667   -0.7337    0.0391 N   0  0  0  0  0  0  0  0  0  0  0  0
   -2.6478   -0.2356   -0.6802 C   0  0  0  0  0  0  0  0  0  0  0  0
   -3.7130   -1.1950   -1.1467 C   0  0  0  0  0  0  0  0  0  0  0  0
   -2.7925    0.9672   -0.9662 O   0  0  0  0  0  0  0  0  0  0  0  0
    2.1849   -2.0622    2.7728 H   0  0  0  0  0  0  0  0  0  0  0  0
    3.5373   -1.2561    1.9279 H   0  0  0  0  0  0  0  0  0  0  0  0
    2.9471   -0.5936    3.5348 H   0  0  0  0  0  0  0  0  0  0  0  0
    1.8753    0.7820    1.8108 H   0  0  0  0  0  0  0  0  0  0  0  0
    0.5573    1.7953    0.8662 H   0  0  0  0  0  0  0  0  0  0  0  0
   -1.0327    1.8591   -0.0798 H   0  0  0  0  0  0  0  0  0  0  0  0
   -1.5657   -1.8020    0.2181 H   0  0  0  0  0  0  0  0  0  0  0  0
   -4.3218   -0.7284   -1.9499 H   0  0  0  0  0  0  0  0  0  0  0  0
   -4.3615   -1.3904   -0.2782 H   0  0  0  0  0  0  0  0  0  0  0  0
   -3.2293   -2.1255   -1.5079 H   0  0  0  0  0  0  0  0  0  0  0  0
  1  2  1  0
  1 11  1  0
  1 12  1  0
  1 13  1  0
  2  3  1  0
  2 14  1  0
  3  4  2  0
  3  5  1  0
  5  6  2  3
  5  7  1  0
  6 15  1  0
  6 16  1  0
  7  8  1  0
  7 17  1  0
  8  9  1  0
  8 10  2  0
  9 18  1  0
  9 19  1  0
  9 20  1  0
M  END

> <RosettaParamsInstructions>
M  ROOT 7
M  POLY_N_BB 7
M  POLY_CA_BB 5
M  POLY_C_BB 3
M  POLY_O_BB 4
M  POLY_IGNORE 1 10 9 14 11 12 13 18 19 20
M  POLY_UPPER 2
M  POLY_LOWER 8
M  POLY_CHG 0
M  POLY_PROPERTIES PROTEIN POLYMER ALPHA_AA ALIPHATIC
M  END

$$$$
DHA_new
     RDKit          3D

 20 19  0  0  0  0  0  0  0  0999 V2000
    2.6449   -1.0723    2.5791 C   0  0  0  0  0  0  0  0  0  0  0  0
    1.6946   -0.2475    1.8254 N   0  0  0  0  0  0  0  0  0  0  0  0
    0.5507   -0.8367    1.3117 C   0  0  0  0  0  0  0  0  0  0  0  0
    0.3440   -2.0616    1.4970 O   0  0  0  0  0  0  0  0  0  0  0  0
   -0.4305   -0.0805    0.5572 C   0  0  0  0  0  0  0  0  0  0  0  0
   -0.2247    1.2121    0.3544 C   0  0  0  0  0  0  0  0  0  0  0  0
   -1.5679   -0.7644    0.0708 N   0  0  0  0  0  0  0  0  0  0  0  0
   -2.6417   -0.2698   -0.6719 C   0  0  0  0  0  0  0  0  0  0  0  0
   -3.7831   -1.1562   -1.1102 C   0  0  0  0  0  0  0  0  0  0  0  0
   -2.7064    0.9311   -1.0081 O   0  0  0  0  0  0  0  0  0  0  0  0
    3.5428   -1.2538    1.9454 H   0  0  0  0  0  0  0  0  0  0  0  0
    2.1722   -2.0151    2.8647 H   0  0  0  0  0  0  0  0  0  0  0  0
    2.8988   -0.4790    3.4910 H   0  0  0  0  0  0  0  0  0  0  0  0
    1.9502    0.7416    1.7268 H   0  0  0  0  0  0  0  0  0  0  0  0
    0.6589    1.7506    0.7305 H   0  0  0  0  0  0  0  0  0  0  0  0
   -0.8876    1.8702   -0.1920 H   0  0  0  0  0  0  0  0  0  0  0  0
   -1.6034   -1.8076    0.3098 H   0  0  0  0  0  0  0  0  0  0  0  0
   -4.7015   -0.5496   -1.0746 H   0  0  0  0  0  0  0  0  0  0  0  0
   -3.9156   -1.9775   -0.3641 H   0  0  0  0  0  0  0  0  0  0  0  0
   -3.6009   -1.5861   -2.1021 H   0  0  0  0  0  0  0  0  0  0  0  0
  1  2  1  0
  1 11  1  0
  1 12  1  0
  1 13  1  0
  2  3  1  0
  2 14  1  0
  3  4  2  0
  3  5  1  0
  5  6  2  3
  5  7  1  0
  6 15  1  0
  6 16  1  0
  7  8  1  0
  7 17  1  0
  8  9  1  0
  8 10  2  0
  9 18  1  0
  9 19  1  0
  9 20  1  0
M  END

> <RosettaParamsInstructions>
M  ROOT 7
M  POLY_N_BB 7
M  POLY_CA_BB 5
M  POLY_C_BB 3
M  POLY_O_BB 4
M  POLY_IGNORE 1 10 9 14 11 12 13 18 19 20
M  POLY_UPPER 2
M  POLY_LOWER 8
M  POLY_CHG 0
M  POLY_PROPERTIES PROTEIN POLYMER ALPHA_AA ALIPHATIC
M  END

$$$$
DHA_new
     RDKit          3D

 20 19  0  0  0  0  0  0  0  0999 V2000
    2.6993   -1.0877    2.5181 C   0  0  0  0  0  0  0  0  0  0  0  0
    1.7341   -0.2111    1.8171 N   0  0  0  0  0  0  0  0  0  0  0  0
    0.5786   -0.7968    1.2843 C   0  0  0  0  0  0  0  0  0  0  0  0
    0.4174   -2.0615    1.4317 O   0  0  0  0  0  0  0  0  0  0  0  0
   -0.4516   -0.0397    0.5696 C   0  0  0  0  0  0  0  0  0  0  0  0
   -0.2869    1.2506    0.4193 C   0  0  0  0  0  0  0  0  0  0  0  0
   -1.5659   -0.7627    0.0854 N   0  0  0  0  0  0  0  0  0  0  0  0
   -2.6665   -0.2500   -0.6226 C   0  0  0  0  0  0  0  0  0  0  0  0
   -3.7795   -1.1806   -1.0671 C   0  0  0  0  0  0  0  0  0  0  0  0
   -2.8299    0.9440   -0.9372 O   0  0  0  0  0  0  0  0  0  0  0  0
    3.3115   -1.6400    1.7885 H   0  0  0  0  0  0  0  0  0  0  0  0
    2.0693   -1.8365    3.0639 H   0  0  0  0  0  0  0  0  0  0  0  0
    3.3383   -0.5076    3.1949 H   0  0  0  0  0  0  0  0  0  0  0  0
    1.9368    0.8033    1.7397 H   0  0  0  0  0  0  0  0  0  0  0  0
    0.5831    1.7647    0.8067 H   0  0  0  0  0  0  0  0  0  0  0  0
   -1.0194    1.8826   -0.1064 H   0  0  0  0  0  0  0  0  0  0  0  0
   -1.5640   -1.8152    0.2838 H   0  0  0  0  0  0  0  0  0  0  0  0
   -3.7374   -2.0884   -0.4474 H   0  0  0  0  0  0  0  0  0  0  0  0
   -4.7372   -0.6496   -0.9407 H   0  0  0  0  0  0  0  0  0  0  0  0
   -3.6366   -1.3700   -2.1407 H   0  0  0  0  0  0  0  0  0  0  0  0
  1  2  1  0
  1 11  1  0
  1 12  1  0
  1 13  1  0
  2  3  1  0
  2 14  1  0
  3  4  2  0
  3  5  1  0
  5  6  2  3
  5  7  1  0
  6 15  1  0
  6 16  1  0
  7  8  1  0
  7 17  1  0
  8  9  1  0
  8 10  2  0
  9 18  1  0
  9 19  1  0
  9 20  1  0
M  END

> <RosettaParamsInstructions>
M  ROOT 7
M  POLY_N_BB 7
M  POLY_CA_BB 5
M  POLY_C_BB 3
M  POLY_O_BB 4
M  POLY_IGNORE 1 10 9 14 11 12 13 18 19 20
M  POLY_UPPER 2
M  POLY_LOWER 8
M  POLY_CHG 0
M  POLY_PROPERTIES PROTEIN POLYMER ALPHA_AA ALIPHATIC
M  END

$$$$
DHA_new
     RDKit          3D

 20 19  0  0  0  0  0  0  0  0999 V2000
    2.6509   -1.0711    2.5584 C   0  0  0  0  0  0  0  0  0  0  0  0
    1.6817   -0.2122    1.8538 N   0  0  0  0  0  0  0  0  0  0  0  0
    0.5554   -0.8359    1.2949 C   0  0  0  0  0  0  0  0  0  0  0  0
    0.4020   -2.0823    1.4049 O   0  0  0  0  0  0  0  0  0  0  0  0
   -0.4491   -0.0776    0.5856 C   0  0  0  0  0  0  0  0  0  0  0  0
   -0.3213    1.2108    0.4538 C   0  0  0  0  0  0  0  0  0  0  0  0
   -1.5546   -0.7693    0.0498 N   0  0  0  0  0  0  0  0  0  0  0  0
   -2.6281   -0.2305   -0.6647 C   0  0  0  0  0  0  0  0  0  0  0  0
   -3.7026   -1.1713   -1.1424 C   0  0  0  0  0  0  0  0  0  0  0  0
   -2.7649    0.9836   -0.9394 O   0  0  0  0  0  0  0  0  0  0  0  0
    3.6193   -0.5711    2.5331 H   0  0  0  0  0  0  0  0  0  0  0  0
    2.3333   -1.1826    3.6167 H   0  0  0  0  0  0  0  0  0  0  0  0
    2.6256   -2.0459    2.0617 H   0  0  0  0  0  0  0  0  0  0  0  0
    1.9016    0.8071    1.8202 H   0  0  0  0  0  0  0  0  0  0  0  0
   -1.0052    1.8818   -0.0539 H   0  0  0  0  0  0  0  0  0  0  0  0
    0.5455    1.7613    0.8726 H   0  0  0  0  0  0  0  0  0  0  0  0
   -1.5875   -1.8424    0.2026 H   0  0  0  0  0  0  0  0  0  0  0  0
   -3.2879   -2.1887   -1.2547 H   0  0  0  0  0  0  0  0  0  0  0  0
   -4.5065   -1.1694   -0.4023 H   0  0  0  0  0  0  0  0  0  0  0  0
   -4.1142   -0.8465   -2.1098 H   0  0  0  0  0  0  0  0  0  0  0  0
  1  2  1  0
  1 11  1  0
  1 12  1  0
  1 13  1  0
  2  3  1  0
  2 14  1  0
  3  4  2  0
  3  5  1  0
  5  6  2  3
  5  7  1  0
  6 15  1  0
  6 16  1  0
  7  8  1  0
  7 17  1  0
  8  9  1  0
  8 10  2  0
  9 18  1  0
  9 19  1  0
  9 20  1  0
M  END

> <RosettaParamsInstructions>
M  ROOT 7
M  POLY_N_BB 7
M  POLY_CA_BB 5
M  POLY_C_BB 3
M  POLY_O_BB 4
M  POLY_IGNORE 1 10 9 14 11 12 13 18 19 20
M  POLY_UPPER 2
M  POLY_LOWER 8
M  POLY_CHG 0
M  POLY_PROPERTIES PROTEIN POLYMER ALPHA_AA ALIPHATIC
M  END

$$$$
DHA_new
     RDKit          3D

 20 19  0  0  0  0  0  0  0  0999 V2000
    2.7313   -1.0632    2.4789 C   0  0  0  0  0  0  0  0  0  0  0  0
    1.6786   -0.2554    1.8394 N   0  0  0  0  0  0  0  0  0  0  0  0
    0.5828   -0.8508    1.2623 C   0  0  0  0  0  0  0  0  0  0  0  0
    0.4469   -2.0901    1.2627 O   0  0  0  0  0  0  0  0  0  0  0  0
   -0.4939   -0.0630    0.6106 C   0  0  0  0  0  0  0  0  0  0  0  0
   -0.4037    1.2365    0.5809 C   0  0  0  0  0  0  0  0  0  0  0  0
   -1.5848   -0.7619    0.0427 N   0  0  0  0  0  0  0  0  0  0  0  0
   -2.6828   -0.2119   -0.6062 C   0  0  0  0  0  0  0  0  0  0  0  0
   -3.7425   -1.1539   -1.1417 C   0  0  0  0  0  0  0  0  0  0  0  0
   -2.8262    1.0186   -0.7625 O   0  0  0  0  0  0  0  0  0  0  0  0
    2.6182   -2.1303    2.1889 H   0  0  0  0  0  0  0  0  0  0  0  0
    3.7150   -0.7301    2.1437 H   0  0  0  0  0  0  0  0  0  0  0  0
    2.5697   -0.9235    3.5868 H   0  0  0  0  0  0  0  0  0  0  0  0
    1.8400    0.7537    1.8675 H   0  0  0  0  0  0  0  0  0  0  0  0
    0.4423    1.7281    1.0245 H   0  0  0  0  0  0  0  0  0  0  0  0
   -1.1308    1.8583    0.1353 H   0  0  0  0  0  0  0  0  0  0  0  0
   -1.5439   -1.8357    0.1319 H   0  0  0  0  0  0  0  0  0  0  0  0
   -4.3722   -1.5494   -0.3428 H   0  0  0  0  0  0  0  0  0  0  0  0
   -4.2659   -0.6287   -1.9427 H   0  0  0  0  0  0  0  0  0  0  0  0
   -3.1843   -1.9994   -1.6194 H   0  0  0  0  0  0  0  0  0  0  0  0
  1  2  1  0
  1 11  1  0
  1 12  1  0
  1 13  1  0
  2  3  1  0
  2 14  1  0
  3  4  2  0
  3  5  1  0
  5  6  2  3
  5  7  1  0
  6 15  1  0
  6 16  1  0
  7  8  1  0
  7 17  1  0
  8  9  1  0
  8 10  2  0
  9 18  1  0
  9 19  1  0
  9 20  1  0
M  END

> <RosettaParamsInstructions>
M  ROOT 7
M  POLY_N_BB 7
M  POLY_CA_BB 5
M  POLY_C_BB 3
M  POLY_O_BB 4
M  POLY_IGNORE 1 10 9 14 11 12 13 18 19 20
M  POLY_UPPER 2
M  POLY_LOWER 8
M  POLY_CHG 0
M  POLY_PROPERTIES PROTEIN POLYMER ALPHA_AA ALIPHATIC
M  END

$$$$
DHA_new
     RDKit          3D

 20 19  0  0  0  0  0  0  0  0999 V2000
    2.6714   -1.0941    2.5515 C   0  0  0  0  0  0  0  0  0  0  0  0
    1.7020   -0.2300    1.8740 N   0  0  0  0  0  0  0  0  0  0  0  0
    0.5692   -0.8058    1.2892 C   0  0  0  0  0  0  0  0  0  0  0  0
    0.4214   -2.0776    1.3690 O   0  0  0  0  0  0  0  0  0  0  0  0
   -0.4813   -0.0415    0.5775 C   0  0  0  0  0  0  0  0  0  0  0  0
   -0.3597    1.2502    0.4799 C   0  0  0  0  0  0  0  0  0  0  0  0
   -1.5710   -0.7473    0.0347 N   0  0  0  0  0  0  0  0  0  0  0  0
   -2.6608   -0.2431   -0.6659 C   0  0  0  0  0  0  0  0  0  0  0  0
   -3.7110   -1.2145   -1.1510 C   0  0  0  0  0  0  0  0  0  0  0  0
   -2.7812    0.9772   -0.8953 O   0  0  0  0  0  0  0  0  0  0  0  0
    3.5896   -0.5346    2.8052 H   0  0  0  0  0  0  0  0  0  0  0  0
    2.2098   -1.4488    3.4751 H   0  0  0  0  0  0  0  0  0  0  0  0
    2.9682   -1.9043    1.8567 H   0  0  0  0  0  0  0  0  0  0  0  0
    1.8681    0.7856    1.8383 H   0  0  0  0  0  0  0  0  0  0  0  0
   -1.0480    1.9162   -0.0080 H   0  0  0  0  0  0  0  0  0  0  0  0
    0.5028    1.7639    0.9153 H   0  0  0  0  0  0  0  0  0  0  0  0
   -1.5737   -1.8142    0.1723 H   0  0  0  0  0  0  0  0  0  0  0  0
   -4.6843   -0.7031   -0.9195 H   0  0  0  0  0  0  0  0  0  0  0  0
   -3.6248   -1.3167   -2.2358 H   0  0  0  0  0  0  0  0  0  0  0  0
   -3.6131   -2.1699   -0.6224 H   0  0  0  0  0  0  0  0  0  0  0  0
  1  2  1  0
  1 11  1  0
  1 12  1  0
  1 13  1  0
  2  3  1  0
  2 14  1  0
  3  4  2  0
  3  5  1  0
  5  6  2  3
  5  7  1  0
  6 15  1  0
  6 16  1  0
  7  8  1  0
  7 17  1  0
  8  9  1  0
  8 10  2  0
  9 18  1  0
  9 19  1  0
  9 20  1  0
M  END

> <RosettaParamsInstructions>
M  ROOT 7
M  POLY_N_BB 7
M  POLY_CA_BB 5
M  POLY_C_BB 3
M  POLY_O_BB 4
M  POLY_IGNORE 1 10 9 14 11 12 13 18 19 20
M  POLY_UPPER 2
M  POLY_LOWER 8
M  POLY_CHG 0
M  POLY_PROPERTIES PROTEIN POLYMER ALPHA_AA ALIPHATIC
M  END

$$$$
DHA_new
     RDKit          3D

 20 19  0  0  0  0  0  0  0  0999 V2000
    2.6987   -1.0743    2.5792 C   0  0  0  0  0  0  0  0  0  0  0  0
    1.6946   -0.2448    1.8730 N   0  0  0  0  0  0  0  0  0  0  0  0
    0.5763   -0.8410    1.3049 C   0  0  0  0  0  0  0  0  0  0  0  0
    0.4325   -2.0769    1.3985 O   0  0  0  0  0  0  0  0  0  0  0  0
   -0.4481   -0.0817    0.5969 C   0  0  0  0  0  0  0  0  0  0  0  0
   -0.3624    1.2337    0.4579 C   0  0  0  0  0  0  0  0  0  0  0  0
   -1.5711   -0.7631    0.0383 N   0  0  0  0  0  0  0  0  0  0  0  0
   -2.6399   -0.2186   -0.6648 C   0  0  0  0  0  0  0  0  0  0  0  0
   -3.7133   -1.1849   -1.1535 C   0  0  0  0  0  0  0  0  0  0  0  0
   -2.8128    0.9816   -0.9385 O   0  0  0  0  0  0  0  0  0  0  0  0
    2.1403   -1.8703    3.1102 H   0  0  0  0  0  0  0  0  0  0  0  0
    3.2529   -0.4379    3.3082 H   0  0  0  0  0  0  0  0  0  0  0  0
    3.3820   -1.5477    1.8462 H   0  0  0  0  0  0  0  0  0  0  0  0
    1.8400    0.7819    1.8106 H   0  0  0  0  0  0  0  0  0  0  0  0
    0.4946    1.7898    0.8790 H   0  0  0  0  0  0  0  0  0  0  0  0
   -1.0609    1.8672   -0.0415 H   0  0  0  0  0  0  0  0  0  0  0  0
   -1.5374   -1.8290    0.2112 H   0  0  0  0  0  0  0  0  0  0  0  0
   -3.3127   -2.2040   -1.1922 H   0  0  0  0  0  0  0  0  0  0  0  0
   -4.6086   -1.0736   -0.5043 H   0  0  0  0  0  0  0  0  0  0  0  0
   -4.0510   -0.8587   -2.1786 H   0  0  0  0  0  0  0  0  0  0  0  0
  1  2  1  0
  1 11  1  0
  1 12  1  0
  1 13  1  0
  2  3  1  0
  2 14  1  0
  3  4  2  0
  3  5  1  0
  5  6  2  3
  5  7  1  0
  6 15  1  0
  6 16  1  0
  7  8  1  0
  7 17  1  0
  8  9  1  0
  8 10  2  0
  9 18  1  0
  9 19  1  0
  9 20  1  0
M  END

> <RosettaParamsInstructions>
M  ROOT 7
M  POLY_N_BB 7
M  POLY_CA_BB 5
M  POLY_C_BB 3
M  POLY_O_BB 4
M  POLY_IGNORE 1 10 9 14 11 12 13 18 19 20
M  POLY_UPPER 2
M  POLY_LOWER 8
M  POLY_CHG 0
M  POLY_PROPERTIES PROTEIN POLYMER ALPHA_AA ALIPHATIC
M  END

$$$$
DHA_new
     RDKit          3D

 20 19  0  0  0  0  0  0  0  0999 V2000
    2.6423   -1.0780    2.5813 C   0  0  0  0  0  0  0  0  0  0  0  0
    1.6772   -0.2212    1.8658 N   0  0  0  0  0  0  0  0  0  0  0  0
    0.5609   -0.8488    1.3133 C   0  0  0  0  0  0  0  0  0  0  0  0
    0.3668   -2.0996    1.4112 O   0  0  0  0  0  0  0  0  0  0  0  0
   -0.4495   -0.0618    0.5829 C   0  0  0  0  0  0  0  0  0  0  0  0
   -0.3064    1.2117    0.4510 C   0  0  0  0  0  0  0  0  0  0  0  0
   -1.5486   -0.7598    0.0524 N   0  0  0  0  0  0  0  0  0  0  0  0
   -2.6131   -0.2214   -0.6678 C   0  0  0  0  0  0  0  0  0  0  0  0
   -3.6974   -1.1812   -1.1451 C   0  0  0  0  0  0  0  0  0  0  0  0
   -2.7566    0.9788   -0.9565 O   0  0  0  0  0  0  0  0  0  0  0  0
    2.0941   -1.9055    3.0380 H   0  0  0  0  0  0  0  0  0  0  0  0
    3.3447   -1.4617    1.7965 H   0  0  0  0  0  0  0  0  0  0  0  0
    3.1417   -0.4366    3.3135 H   0  0  0  0  0  0  0  0  0  0  0  0
    1.8377    0.7820    1.7900 H   0  0  0  0  0  0  0  0  0  0  0  0
   -1.0161    1.8216   -0.0718 H   0  0  0  0  0  0  0  0  0  0  0  0
    0.5427    1.7808    0.8557 H   0  0  0  0  0  0  0  0  0  0  0  0
   -1.5829   -1.8126    0.2111 H   0  0  0  0  0  0  0  0  0  0  0  0
   -3.7466   -2.0288   -0.4365 H   0  0  0  0  0  0  0  0  0  0  0  0
   -3.4469   -1.4836   -2.1803 H   0  0  0  0  0  0  0  0  0  0  0  0
   -4.6506   -0.6268   -1.0638 H   0  0  0  0  0  0  0  0  0  0  0  0
  1  2  1  0
  1 11  1  0
  1 12  1  0
  1 13  1  0
  2  3  1  0
  2 14  1  0
  3  4  2  0
  3  5  1  0
  5  6  2  3
  5  7  1  0
  6 15  1  0
  6 16  1  0
  7  8  1  0
  7 17  1  0
  8  9  1  0
  8 10  2  0
  9 18  1  0
  9 19  1  0
  9 20  1  0
M  END

> <RosettaParamsInstructions>
M  ROOT 7
M  POLY_N_BB 7
M  POLY_CA_BB 5
M  POLY_C_BB 3
M  POLY_O_BB 4
M  POLY_IGNORE 1 10 9 14 11 12 13 18 19 20
M  POLY_UPPER 2
M  POLY_LOWER 8
M  POLY_CHG 0
M  POLY_PROPERTIES PROTEIN POLYMER ALPHA_AA ALIPHATIC
M  END

$$$$
DHA_new
     RDKit          3D

 20 19  0  0  0  0  0  0  0  0999 V2000
    2.3052   -1.6278    2.4100 C   0  0  0  0  0  0  0  0  0  0  0  0
    1.1040   -1.2611    1.6701 N   0  0  0  0  0  0  0  0  0  0  0  0
    0.8794    0.0760    1.2773 C   0  0  0  0  0  0  0  0  0  0  0  0
    1.7423    0.9456    1.5817 O   0  0  0  0  0  0  0  0  0  0  0  0
   -0.3254    0.4883    0.5263 C   0  0  0  0  0  0  0  0  0  0  0  0
   -0.4564    1.7622    0.1981 C   0  0  0  0  0  0  0  0  0  0  0  0
   -1.3063   -0.4476    0.1699 N   0  0  0  0  0  0  0  0  0  0  0  0
   -2.5061   -0.2263   -0.5400 C   0  0  0  0  0  0  0  0  0  0  0  0
   -3.4378   -1.3823   -0.8250 C   0  0  0  0  0  0  0  0  0  0  0  0
   -2.9104    0.8762   -0.9854 O   0  0  0  0  0  0  0  0  0  0  0  0
    2.6075   -2.6642    2.2537 H   0  0  0  0  0  0  0  0  0  0  0  0
    2.1323   -1.4150    3.5027 H   0  0  0  0  0  0  0  0  0  0  0  0
    3.1274   -0.9617    2.0926 H   0  0  0  0  0  0  0  0  0  0  0  0
    0.4597   -2.0469    1.4702 H   0  0  0  0  0  0  0  0  0  0  0  0
   -1.2640    2.2074   -0.3391 H   0  0  0  0  0  0  0  0  0  0  0  0
    0.3484    2.4653    0.5036 H   0  0  0  0  0  0  0  0  0  0  0  0
   -1.1289   -1.4521    0.4697 H   0  0  0  0  0  0  0  0  0  0  0  0
   -3.2638   -2.2130   -0.1100 H   0  0  0  0  0  0  0  0  0  0  0  0
   -4.4824   -1.0339   -0.7420 H   0  0  0  0  0  0  0  0  0  0  0  0
   -3.2311   -1.7415   -1.8435 H   0  0  0  0  0  0  0  0  0  0  0  0
  1  2  1  0
  1 11  1  0
  1 12  1  0
  1 13  1  0
  2  3  1  0
  2 14  1  0
  3  4  2  0
  3  5  1  0
  5  6  2  3
  5  7  1  0
  6 15  1  0
  6 16  1  0
  7  8  1  0
  7 17  1  0
  8  9  1  0
  8 10  2  0
  9 18  1  0
  9 19  1  0
  9 20  1  0
M  END

> <RosettaParamsInstructions>
M  ROOT 7
M  POLY_N_BB 7
M  POLY_CA_BB 5
M  POLY_C_BB 3
M  POLY_O_BB 4
M  POLY_IGNORE 1 10 9 14 11 12 13 18 19 20
M  POLY_UPPER 2
M  POLY_LOWER 8
M  POLY_CHG 0
M  POLY_PROPERTIES PROTEIN POLYMER ALPHA_AA ALIPHATIC
M  END

$$$$
DHA_new
     RDKit          3D

 20 19  0  0  0  0  0  0  0  0999 V2000
    2.7014   -1.0673    2.5742 C   0  0  0  0  0  0  0  0  0  0  0  0
    1.7100   -0.2525    1.8730 N   0  0  0  0  0  0  0  0  0  0  0  0
    0.5801   -0.8293    1.3083 C   0  0  0  0  0  0  0  0  0  0  0  0
    0.4260   -2.0721    1.4125 O   0  0  0  0  0  0  0  0  0  0  0  0
   -0.4672   -0.0684    0.5831 C   0  0  0  0  0  0  0  0  0  0  0  0
   -0.3425    1.2139    0.4556 C   0  0  0  0  0  0  0  0  0  0  0  0
   -1.5739   -0.7794    0.0527 N   0  0  0  0  0  0  0  0  0  0  0  0
   -2.6557   -0.2548   -0.6556 C   0  0  0  0  0  0  0  0  0  0  0  0
   -3.7703   -1.1332   -1.1645 C   0  0  0  0  0  0  0  0  0  0  0  0
   -2.7633    0.9586   -0.9070 O   0  0  0  0  0  0  0  0  0  0  0  0
    2.2137   -2.0093    2.9333 H   0  0  0  0  0  0  0  0  0  0  0  0
    3.5147   -1.2508    1.8628 H   0  0  0  0  0  0  0  0  0  0  0  0
    3.0396   -0.4848    3.4426 H   0  0  0  0  0  0  0  0  0  0  0  0
    1.8878    0.7571    1.8188 H   0  0  0  0  0  0  0  0  0  0  0  0
    0.5157    1.7157    0.8746 H   0  0  0  0  0  0  0  0  0  0  0  0
   -1.0322    1.8508   -0.0431 H   0  0  0  0  0  0  0  0  0  0  0  0
   -1.5812   -1.8604    0.2169 H   0  0  0  0  0  0  0  0  0  0  0  0
   -3.3775   -2.1813   -1.1925 H   0  0  0  0  0  0  0  0  0  0  0  0
   -4.6341   -1.0485   -0.4938 H   0  0  0  0  0  0  0  0  0  0  0  0
   -3.9975   -0.8562   -2.2110 H   0  0  0  0  0  0  0  0  0  0  0  0
  1  2  1  0
  1 11  1  0
  1 12  1  0
  1 13  1  0
  2  3  1  0
  2 14  1  0
  3  4  2  0
  3  5  1  0
  5  6  2  3
  5  7  1  0
  6 15  1  0
  6 16  1  0
  7  8  1  0
  7 17  1  0
  8  9  1  0
  8 10  2  0
  9 18  1  0
  9 19  1  0
  9 20  1  0
M  END

> <RosettaParamsInstructions>
M  ROOT 7
M  POLY_N_BB 7
M  POLY_CA_BB 5
M  POLY_C_BB 3
M  POLY_O_BB 4
M  POLY_IGNORE 1 10 9 14 11 12 13 18 19 20
M  POLY_UPPER 2
M  POLY_LOWER 8
M  POLY_CHG 0
M  POLY_PROPERTIES PROTEIN POLYMER ALPHA_AA ALIPHATIC
M  END

$$$$
DHA_new
     RDKit          3D

 20 19  0  0  0  0  0  0  0  0999 V2000
    2.6753   -1.0543    2.6145 C   0  0  0  0  0  0  0  0  0  0  0  0
    1.6930   -0.2533    1.8893 N   0  0  0  0  0  0  0  0  0  0  0  0
    0.5445   -0.8232    1.3073 C   0  0  0  0  0  0  0  0  0  0  0  0
    0.3803   -2.0860    1.4326 O   0  0  0  0  0  0  0  0  0  0  0  0
   -0.4747   -0.0972    0.5734 C   0  0  0  0  0  0  0  0  0  0  0  0
   -0.3478    1.1995    0.4199 C   0  0  0  0  0  0  0  0  0  0  0  0
   -1.5658   -0.7978    0.0485 N   0  0  0  0  0  0  0  0  0  0  0  0
   -2.6282   -0.2522   -0.6792 C   0  0  0  0  0  0  0  0  0  0  0  0
   -3.7455   -1.1557   -1.1839 C   0  0  0  0  0  0  0  0  0  0  0  0
   -2.8021    0.9464   -0.9942 O   0  0  0  0  0  0  0  0  0  0  0  0
    3.1073   -0.4500    3.4459 H   0  0  0  0  0  0  0  0  0  0  0  0
    2.2699   -2.0162    2.9554 H   0  0  0  0  0  0  0  0  0  0  0  0
    3.5146   -1.2846    1.9224 H   0  0  0  0  0  0  0  0  0  0  0  0
    1.8872    0.7614    1.8256 H   0  0  0  0  0  0  0  0  0  0  0  0
    0.5198    1.7356    0.8410 H   0  0  0  0  0  0  0  0  0  0  0  0
   -1.0209    1.8606   -0.0968 H   0  0  0  0  0  0  0  0  0  0  0  0
   -1.5940   -1.8517    0.2178 H   0  0  0  0  0  0  0  0  0  0  0  0
   -4.6033   -0.9547   -0.5102 H   0  0  0  0  0  0  0  0  0  0  0  0
   -3.4329   -2.2123   -1.0707 H   0  0  0  0  0  0  0  0  0  0  0  0
   -3.9833   -0.8665   -2.2177 H   0  0  0  0  0  0  0  0  0  0  0  0
  1  2  1  0
  1 11  1  0
  1 12  1  0
  1 13  1  0
  2  3  1  0
  2 14  1  0
  3  4  2  0
  3  5  1  0
  5  6  2  3
  5  7  1  0
  6 15  1  0
  6 16  1  0
  7  8  1  0
  7 17  1  0
  8  9  1  0
  8 10  2  0
  9 18  1  0
  9 19  1  0
  9 20  1  0
M  END

> <RosettaParamsInstructions>
M  ROOT 7
M  POLY_N_BB 7
M  POLY_CA_BB 5
M  POLY_C_BB 3
M  POLY_O_BB 4
M  POLY_IGNORE 1 10 9 14 11 12 13 18 19 20
M  POLY_UPPER 2
M  POLY_LOWER 8
M  POLY_CHG 0
M  POLY_PROPERTIES PROTEIN POLYMER ALPHA_AA ALIPHATIC
M  END

$$$$
DHA_new
     RDKit          3D

 20 19  0  0  0  0  0  0  0  0999 V2000
    2.6890   -1.0526    2.5619 C   0  0  0  0  0  0  0  0  0  0  0  0
    1.6849   -0.2253    1.9088 N   0  0  0  0  0  0  0  0  0  0  0  0
    0.5883   -0.8125    1.2969 C   0  0  0  0  0  0  0  0  0  0  0  0
    0.4728   -2.0763    1.3142 O   0  0  0  0  0  0  0  0  0  0  0  0
   -0.4773   -0.0687    0.6128 C   0  0  0  0  0  0  0  0  0  0  0  0
   -0.4172    1.2379    0.5597 C   0  0  0  0  0  0  0  0  0  0  0  0
   -1.5629   -0.7552    0.0141 N   0  0  0  0  0  0  0  0  0  0  0  0
   -2.6616   -0.2584   -0.6728 C   0  0  0  0  0  0  0  0  0  0  0  0
   -3.7285   -1.1479   -1.2466 C   0  0  0  0  0  0  0  0  0  0  0  0
   -2.8412    0.9609   -0.8625 O   0  0  0  0  0  0  0  0  0  0  0  0
    3.0529   -0.5442    3.4805 H   0  0  0  0  0  0  0  0  0  0  0  0
    3.5541   -1.2656    1.8985 H   0  0  0  0  0  0  0  0  0  0  0  0
    2.2673   -2.0241    2.8920 H   0  0  0  0  0  0  0  0  0  0  0  0
    1.8284    0.7920    1.9249 H   0  0  0  0  0  0  0  0  0  0  0  0
   -1.1220    1.8711    0.0976 H   0  0  0  0  0  0  0  0  0  0  0  0
    0.4279    1.7559    1.0268 H   0  0  0  0  0  0  0  0  0  0  0  0
   -1.5057   -1.8285    0.1211 H   0  0  0  0  0  0  0  0  0  0  0  0
   -3.2861   -2.1716   -1.3984 H   0  0  0  0  0  0  0  0  0  0  0  0
   -4.5730   -1.2800   -0.5535 H   0  0  0  0  0  0  0  0  0  0  0  0
   -3.9967   -0.7594   -2.2350 H   0  0  0  0  0  0  0  0  0  0  0  0
  1  2  1  0
  1 11  1  0
  1 12  1  0
  1 13  1  0
  2  3  1  0
  2 14  1  0
  3  4  2  0
  3  5  1  0
  5  6  2  3
  5  7  1  0
  6 15  1  0
  6 16  1  0
  7  8  1  0
  7 17  1  0
  8  9  1  0
  8 10  2  0
  9 18  1  0
  9 19  1  0
  9 20  1  0
M  END

> <RosettaParamsInstructions>
M  ROOT 7
M  POLY_N_BB 7
M  POLY_CA_BB 5
M  POLY_C_BB 3
M  POLY_O_BB 4
M  POLY_IGNORE 1 10 9 14 11 12 13 18 19 20
M  POLY_UPPER 2
M  POLY_LOWER 8
M  POLY_CHG 0
M  POLY_PROPERTIES PROTEIN POLYMER ALPHA_AA ALIPHATIC
M  END

$$$$
DHA_new
     RDKit          3D

 20 19  0  0  0  0  0  0  0  0999 V2000
    2.6806   -1.0302    2.5831 C   0  0  0  0  0  0  0  0  0  0  0  0
    1.6833   -0.2374    1.8663 N   0  0  0  0  0  0  0  0  0  0  0  0
    0.5801   -0.8468    1.3157 C   0  0  0  0  0  0  0  0  0  0  0  0
    0.4515   -2.1069    1.4453 O   0  0  0  0  0  0  0  0  0  0  0  0
   -0.4567   -0.0913    0.5818 C   0  0  0  0  0  0  0  0  0  0  0  0
   -0.3226    1.1871    0.4525 C   0  0  0  0  0  0  0  0  0  0  0  0
   -1.5698   -0.7915    0.0402 N   0  0  0  0  0  0  0  0  0  0  0  0
   -2.6436   -0.2667   -0.6778 C   0  0  0  0  0  0  0  0  0  0  0  0
   -3.7569   -1.1512   -1.1896 C   0  0  0  0  0  0  0  0  0  0  0  0
   -2.7605    0.9343   -0.9425 O   0  0  0  0  0  0  0  0  0  0  0  0
    3.7051   -0.6397    2.4073 H   0  0  0  0  0  0  0  0  0  0  0  0
    2.4377   -0.9924    3.6740 H   0  0  0  0  0  0  0  0  0  0  0  0
    2.6313   -2.0633    2.1847 H   0  0  0  0  0  0  0  0  0  0  0  0
    1.8783    0.7686    1.8172 H   0  0  0  0  0  0  0  0  0  0  0  0
    0.5346    1.6979    0.8742 H   0  0  0  0  0  0  0  0  0  0  0  0
   -1.0019    1.8760   -0.0600 H   0  0  0  0  0  0  0  0  0  0  0  0
   -1.5537   -1.8555    0.2231 H   0  0  0  0  0  0  0  0  0  0  0  0
   -3.7228   -2.1430   -0.7143 H   0  0  0  0  0  0  0  0  0  0  0  0
   -3.7018   -1.2399   -2.2947 H   0  0  0  0  0  0  0  0  0  0  0  0
   -4.6987   -0.6601   -0.8458 H   0  0  0  0  0  0  0  0  0  0  0  0
  1  2  1  0
  1 11  1  0
  1 12  1  0
  1 13  1  0
  2  3  1  0
  2 14  1  0
  3  4  2  0
  3  5  1  0
  5  6  2  3
  5  7  1  0
  6 15  1  0
  6 16  1  0
  7  8  1  0
  7 17  1  0
  8  9  1  0
  8 10  2  0
  9 18  1  0
  9 19  1  0
  9 20  1  0
M  END

> <RosettaParamsInstructions>
M  ROOT 7
M  POLY_N_BB 7
M  POLY_CA_BB 5
M  POLY_C_BB 3
M  POLY_O_BB 4
M  POLY_IGNORE 1 10 9 14 11 12 13 18 19 20
M  POLY_UPPER 2
M  POLY_LOWER 8
M  POLY_CHG 0
M  POLY_PROPERTIES PROTEIN POLYMER ALPHA_AA ALIPHATIC
M  END

$$$$
DHA_new
     RDKit          3D

 20 19  0  0  0  0  0  0  0  0999 V2000
    2.6190   -1.0636    2.6343 C   0  0  0  0  0  0  0  0  0  0  0  0
    1.7051   -0.2206    1.8695 N   0  0  0  0  0  0  0  0  0  0  0  0
    0.5469   -0.7830    1.3183 C   0  0  0  0  0  0  0  0  0  0  0  0
    0.3436   -2.0293    1.5157 O   0  0  0  0  0  0  0  0  0  0  0  0
   -0.4480   -0.0308    0.5283 C   0  0  0  0  0  0  0  0  0  0  0  0
   -0.2589    1.2391    0.3163 C   0  0  0  0  0  0  0  0  0  0  0  0
   -1.5594   -0.7502    0.0454 N   0  0  0  0  0  0  0  0  0  0  0  0
   -2.6325   -0.2721   -0.7214 C   0  0  0  0  0  0  0  0  0  0  0  0
   -3.7400   -1.2024   -1.1478 C   0  0  0  0  0  0  0  0  0  0  0  0
   -2.6994    0.9231   -1.0679 O   0  0  0  0  0  0  0  0  0  0  0  0
    2.0226   -1.6857    3.3551 H   0  0  0  0  0  0  0  0  0  0  0  0
    3.1550   -1.7533    1.9744 H   0  0  0  0  0  0  0  0  0  0  0  0
    3.3008   -0.4332    3.2508 H   0  0  0  0  0  0  0  0  0  0  0  0
    1.9339    0.7719    1.7525 H   0  0  0  0  0  0  0  0  0  0  0  0
    0.6218    1.7429    0.7159 H   0  0  0  0  0  0  0  0  0  0  0  0
   -0.9175    1.8735   -0.2417 H   0  0  0  0  0  0  0  0  0  0  0  0
   -1.5988   -1.7868    0.2874 H   0  0  0  0  0  0  0  0  0  0  0  0
   -4.2678   -0.7619   -2.0049 H   0  0  0  0  0  0  0  0  0  0  0  0
   -3.2896   -2.1963   -1.3611 H   0  0  0  0  0  0  0  0  0  0  0  0
   -4.4435   -1.2335   -0.2784 H   0  0  0  0  0  0  0  0  0  0  0  0
  1  2  1  0
  1 11  1  0
  1 12  1  0
  1 13  1  0
  2  3  1  0
  2 14  1  0
  3  4  2  0
  3  5  1  0
  5  6  2  3
  5  7  1  0
  6 15  1  0
  6 16  1  0
  7  8  1  0
  7 17  1  0
  8  9  1  0
  8 10  2  0
  9 18  1  0
  9 19  1  0
  9 20  1  0
M  END

> <RosettaParamsInstructions>
M  ROOT 7
M  POLY_N_BB 7
M  POLY_CA_BB 5
M  POLY_C_BB 3
M  POLY_O_BB 4
M  POLY_IGNORE 1 10 9 14 11 12 13 18 19 20
M  POLY_UPPER 2
M  POLY_LOWER 8
M  POLY_CHG 0
M  POLY_PROPERTIES PROTEIN POLYMER ALPHA_AA ALIPHATIC
M  END

$$$$
DHA_new
     RDKit          3D

 20 19  0  0  0  0  0  0  0  0999 V2000
    2.7111   -1.0610    2.5889 C   0  0  0  0  0  0  0  0  0  0  0  0
    1.7008   -0.2094    1.9230 N   0  0  0  0  0  0  0  0  0  0  0  0
    0.5882   -0.8061    1.3020 C   0  0  0  0  0  0  0  0  0  0  0  0
    0.4539   -2.0726    1.3144 O   0  0  0  0  0  0  0  0  0  0  0  0
   -0.4803   -0.0609    0.6092 C   0  0  0  0  0  0  0  0  0  0  0  0
   -0.3937    1.2459    0.5654 C   0  0  0  0  0  0  0  0  0  0  0  0
   -1.5607   -0.7346    0.0131 N   0  0  0  0  0  0  0  0  0  0  0  0
   -2.6567   -0.2290   -0.6786 C   0  0  0  0  0  0  0  0  0  0  0  0
   -3.6931   -1.1763   -1.2284 C   0  0  0  0  0  0  0  0  0  0  0  0
   -2.8805    0.9815   -0.9008 O   0  0  0  0  0  0  0  0  0  0  0  0
    2.3211   -1.3751    3.5663 H   0  0  0  0  0  0  0  0  0  0  0  0
    3.6785   -0.5348    2.6714 H   0  0  0  0  0  0  0  0  0  0  0  0
    2.8082   -1.9594    1.9135 H   0  0  0  0  0  0  0  0  0  0  0  0
    1.8848    0.7997    1.9592 H   0  0  0  0  0  0  0  0  0  0  0  0
    0.4569    1.7546    1.0364 H   0  0  0  0  0  0  0  0  0  0  0  0
   -1.1471    1.8417    0.0718 H   0  0  0  0  0  0  0  0  0  0  0  0
   -1.5141   -1.8124    0.1197 H   0  0  0  0  0  0  0  0  0  0  0  0
   -3.3438   -2.2227   -1.1788 H   0  0  0  0  0  0  0  0  0  0  0  0
   -4.6166   -1.0849   -0.6455 H   0  0  0  0  0  0  0  0  0  0  0  0
   -3.9232   -0.9363   -2.2814 H   0  0  0  0  0  0  0  0  0  0  0  0
  1  2  1  0
  1 11  1  0
  1 12  1  0
  1 13  1  0
  2  3  1  0
  2 14  1  0
  3  4  2  0
  3  5  1  0
  5  6  2  3
  5  7  1  0
  6 15  1  0
  6 16  1  0
  7  8  1  0
  7 17  1  0
  8  9  1  0
  8 10  2  0
  9 18  1  0
  9 19  1  0
  9 20  1  0
M  END

> <RosettaParamsInstructions>
M  ROOT 7
M  POLY_N_BB 7
M  POLY_CA_BB 5
M  POLY_C_BB 3
M  POLY_O_BB 4
M  POLY_IGNORE 1 10 9 14 11 12 13 18 19 20
M  POLY_UPPER 2
M  POLY_LOWER 8
M  POLY_CHG 0
M  POLY_PROPERTIES PROTEIN POLYMER ALPHA_AA ALIPHATIC
M  END

$$$$
DHA_new
     RDKit          3D

 20 19  0  0  0  0  0  0  0  0999 V2000
    2.6548   -1.0734    2.5856 C   0  0  0  0  0  0  0  0  0  0  0  0
    1.6901   -0.2113    1.8786 N   0  0  0  0  0  0  0  0  0  0  0  0
    0.5597   -0.8194    1.3149 C   0  0  0  0  0  0  0  0  0  0  0  0
    0.4088   -2.0778    1.4323 O   0  0  0  0  0  0  0  0  0  0  0  0
   -0.4799   -0.0641    0.5815 C   0  0  0  0  0  0  0  0  0  0  0  0
   -0.3525    1.2172    0.4465 C   0  0  0  0  0  0  0  0  0  0  0  0
   -1.5556   -0.7743    0.0666 N   0  0  0  0  0  0  0  0  0  0  0  0
   -2.6219   -0.2447   -0.6456 C   0  0  0  0  0  0  0  0  0  0  0  0
   -3.7418   -1.1539   -1.1539 C   0  0  0  0  0  0  0  0  0  0  0  0
   -2.7874    0.9624   -0.9403 O   0  0  0  0  0  0  0  0  0  0  0  0
    3.2685   -0.5047    3.2902 H   0  0  0  0  0  0  0  0  0  0  0  0
    2.0907   -1.8970    3.0533 H   0  0  0  0  0  0  0  0  0  0  0  0
    3.3411   -1.4402    1.7810 H   0  0  0  0  0  0  0  0  0  0  0  0
    1.8854    0.7950    1.8285 H   0  0  0  0  0  0  0  0  0  0  0  0
    0.5119    1.7303    0.8697 H   0  0  0  0  0  0  0  0  0  0  0  0
   -1.0402    1.8531   -0.0610 H   0  0  0  0  0  0  0  0  0  0  0  0
   -1.5798   -1.8298    0.2251 H   0  0  0  0  0  0  0  0  0  0  0  0
   -4.6970   -0.6162   -1.1344 H   0  0  0  0  0  0  0  0  0  0  0  0
   -3.4442   -1.4516   -2.1795 H   0  0  0  0  0  0  0  0  0  0  0  0
   -3.7174   -2.0516   -0.4982 H   0  0  0  0  0  0  0  0  0  0  0  0
  1  2  1  0
  1 11  1  0
  1 12  1  0
  1 13  1  0
  2  3  1  0
  2 14  1  0
  3  4  2  0
  3  5  1  0
  5  6  2  3
  5  7  1  0
  6 15  1  0
  6 16  1  0
  7  8  1  0
  7 17  1  0
  8  9  1  0
  8 10  2  0
  9 18  1  0
  9 19  1  0
  9 20  1  0
M  END

> <RosettaParamsInstructions>
M  ROOT 7
M  POLY_N_BB 7
M  POLY_CA_BB 5
M  POLY_C_BB 3
M  POLY_O_BB 4
M  POLY_IGNORE 1 10 9 14 11 12 13 18 19 20
M  POLY_UPPER 2
M  POLY_LOWER 8
M  POLY_CHG 0
M  POLY_PROPERTIES PROTEIN POLYMER ALPHA_AA ALIPHATIC
M  END

$$$$
DHA_new
     RDKit          3D

 20 19  0  0  0  0  0  0  0  0999 V2000
    2.6537   -1.0706    2.5737 C   0  0  0  0  0  0  0  0  0  0  0  0
    1.6487   -0.2121    1.9127 N   0  0  0  0  0  0  0  0  0  0  0  0
    0.5686   -0.8575    1.2973 C   0  0  0  0  0  0  0  0  0  0  0  0
    0.4635   -2.1047    1.3092 O   0  0  0  0  0  0  0  0  0  0  0  0
   -0.4808   -0.0736    0.6140 C   0  0  0  0  0  0  0  0  0  0  0  0
   -0.4143    1.2382    0.5748 C   0  0  0  0  0  0  0  0  0  0  0  0
   -1.5246   -0.7857    0.0260 N   0  0  0  0  0  0  0  0  0  0  0  0
   -2.6088   -0.2483   -0.6620 C   0  0  0  0  0  0  0  0  0  0  0  0
   -3.6769   -1.1627   -1.2529 C   0  0  0  0  0  0  0  0  0  0  0  0
   -2.8047    0.9465   -0.8524 O   0  0  0  0  0  0  0  0  0  0  0  0
    2.6566   -0.7797    3.6419 H   0  0  0  0  0  0  0  0  0  0  0  0
    3.6277   -0.8469    2.0880 H   0  0  0  0  0  0  0  0  0  0  0  0
    2.4446   -2.1403    2.4055 H   0  0  0  0  0  0  0  0  0  0  0  0
    1.7907    0.8150    1.9366 H   0  0  0  0  0  0  0  0  0  0  0  0
    0.4233    1.7833    1.0491 H   0  0  0  0  0  0  0  0  0  0  0  0
   -1.1528    1.8237    0.0920 H   0  0  0  0  0  0  0  0  0  0  0  0
   -1.4782   -1.8598    0.1191 H   0  0  0  0  0  0  0  0  0  0  0  0
   -4.6545   -0.6905   -1.0611 H   0  0  0  0  0  0  0  0  0  0  0  0
   -3.5554   -2.1283   -0.7458 H   0  0  0  0  0  0  0  0  0  0  0  0
   -3.5328   -1.2981   -2.3249 H   0  0  0  0  0  0  0  0  0  0  0  0
  1  2  1  0
  1 11  1  0
  1 12  1  0
  1 13  1  0
  2  3  1  0
  2 14  1  0
  3  4  2  0
  3  5  1  0
  5  6  2  3
  5  7  1  0
  6 15  1  0
  6 16  1  0
  7  8  1  0
  7 17  1  0
  8  9  1  0
  8 10  2  0
  9 18  1  0
  9 19  1  0
  9 20  1  0
M  END

> <RosettaParamsInstructions>
M  ROOT 7
M  POLY_N_BB 7
M  POLY_CA_BB 5
M  POLY_C_BB 3
M  POLY_O_BB 4
M  POLY_IGNORE 1 10 9 14 11 12 13 18 19 20
M  POLY_UPPER 2
M  POLY_LOWER 8
M  POLY_CHG 0
M  POLY_PROPERTIES PROTEIN POLYMER ALPHA_AA ALIPHATIC
M  END

$$$$
DHA_new
     RDKit          3D

 20 19  0  0  0  0  0  0  0  0999 V2000
    2.6997   -1.0721    2.4950 C   0  0  0  0  0  0  0  0  0  0  0  0
    1.6776   -0.2342    1.8534 N   0  0  0  0  0  0  0  0  0  0  0  0
    0.5650   -0.8385    1.2591 C   0  0  0  0  0  0  0  0  0  0  0  0
    0.4536   -2.1208    1.2835 O   0  0  0  0  0  0  0  0  0  0  0  0
   -0.4726   -0.0580    0.6127 C   0  0  0  0  0  0  0  0  0  0  0  0
   -0.3877    1.2365    0.5725 C   0  0  0  0  0  0  0  0  0  0  0  0
   -1.5649   -0.7481    0.0360 N   0  0  0  0  0  0  0  0  0  0  0  0
   -2.6765   -0.2406   -0.6339 C   0  0  0  0  0  0  0  0  0  0  0  0
   -3.7163   -1.1515   -1.1656 C   0  0  0  0  0  0  0  0  0  0  0  0
   -2.8512    0.9680   -0.8166 O   0  0  0  0  0  0  0  0  0  0  0  0
    2.4197   -2.1270    2.3862 H   0  0  0  0  0  0  0  0  0  0  0  0
    3.6743   -0.8949    2.0053 H   0  0  0  0  0  0  0  0  0  0  0  0
    2.8302   -0.8039    3.5621 H   0  0  0  0  0  0  0  0  0  0  0  0
    1.8504    0.7683    1.8834 H   0  0  0  0  0  0  0  0  0  0  0  0
   -1.1208    1.9120    0.1073 H   0  0  0  0  0  0  0  0  0  0  0  0
    0.4762    1.7626    1.0300 H   0  0  0  0  0  0  0  0  0  0  0  0
   -1.5569   -1.8300    0.1148 H   0  0  0  0  0  0  0  0  0  0  0  0
   -4.5716   -1.2562   -0.4483 H   0  0  0  0  0  0  0  0  0  0  0  0
   -4.0647   -0.7570   -2.1295 H   0  0  0  0  0  0  0  0  0  0  0  0
   -3.2700   -2.1669   -1.2664 H   0  0  0  0  0  0  0  0  0  0  0  0
  1  2  1  0
  1 11  1  0
  1 12  1  0
  1 13  1  0
  2  3  1  0
  2 14  1  0
  3  4  2  0
  3  5  1  0
  5  6  2  3
  5  7  1  0
  6 15  1  0
  6 16  1  0
  7  8  1  0
  7 17  1  0
  8  9  1  0
  8 10  2  0
  9 18  1  0
  9 19  1  0
  9 20  1  0
M  END

> <RosettaParamsInstructions>
M  ROOT 7
M  POLY_N_BB 7
M  POLY_CA_BB 5
M  POLY_C_BB 3
M  POLY_O_BB 4
M  POLY_IGNORE 1 10 9 14 11 12 13 18 19 20
M  POLY_UPPER 2
M  POLY_LOWER 8
M  POLY_CHG 0
M  POLY_PROPERTIES PROTEIN POLYMER ALPHA_AA ALIPHATIC
M  END

$$$$
DHA_new
     RDKit          3D

 20 19  0  0  0  0  0  0  0  0999 V2000
    2.6318   -1.0090    2.6704 C   0  0  0  0  0  0  0  0  0  0  0  0
    1.6728   -0.2198    1.8733 N   0  0  0  0  0  0  0  0  0  0  0  0
    0.5395   -0.8234    1.3517 C   0  0  0  0  0  0  0  0  0  0  0  0
    0.3257   -2.0717    1.5636 O   0  0  0  0  0  0  0  0  0  0  0  0
   -0.4379   -0.0688    0.5530 C   0  0  0  0  0  0  0  0  0  0  0  0
   -0.2423    1.1926    0.3265 C   0  0  0  0  0  0  0  0  0  0  0  0
   -1.5654   -0.7717    0.0619 N   0  0  0  0  0  0  0  0  0  0  0  0
   -2.6016   -0.2425   -0.7108 C   0  0  0  0  0  0  0  0  0  0  0  0
   -3.7362   -1.1593   -1.1476 C   0  0  0  0  0  0  0  0  0  0  0  0
   -2.7009    0.9384   -1.0940 O   0  0  0  0  0  0  0  0  0  0  0  0
    2.1488   -1.2146    3.6257 H   0  0  0  0  0  0  0  0  0  0  0  0
    2.7245   -1.9847    2.1214 H   0  0  0  0  0  0  0  0  0  0  0  0
    3.6133   -0.5448    2.7112 H   0  0  0  0  0  0  0  0  0  0  0  0
    1.9173    0.7631    1.7527 H   0  0  0  0  0  0  0  0  0  0  0  0
   -0.9175    1.7845   -0.2446 H   0  0  0  0  0  0  0  0  0  0  0  0
    0.6224    1.7029    0.7109 H   0  0  0  0  0  0  0  0  0  0  0  0
   -1.6181   -1.8283    0.3190 H   0  0  0  0  0  0  0  0  0  0  0  0
   -4.1541   -0.8102   -2.1114 H   0  0  0  0  0  0  0  0  0  0  0  0
   -3.3155   -2.1806   -1.2207 H   0  0  0  0  0  0  0  0  0  0  0  0
   -4.5133   -1.1042   -0.3714 H   0  0  0  0  0  0  0  0  0  0  0  0
  1  2  1  0
  1 11  1  0
  1 12  1  0
  1 13  1  0
  2  3  1  0
  2 14  1  0
  3  4  2  0
  3  5  1  0
  5  6  2  3
  5  7  1  0
  6 15  1  0
  6 16  1  0
  7  8  1  0
  7 17  1  0
  8  9  1  0
  8 10  2  0
  9 18  1  0
  9 19  1  0
  9 20  1  0
M  END

> <RosettaParamsInstructions>
M  ROOT 7
M  POLY_N_BB 7
M  POLY_CA_BB 5
M  POLY_C_BB 3
M  POLY_O_BB 4
M  POLY_IGNORE 1 10 9 14 11 12 13 18 19 20
M  POLY_UPPER 2
M  POLY_LOWER 8
M  POLY_CHG 0
M  POLY_PROPERTIES PROTEIN POLYMER ALPHA_AA ALIPHATIC
M  END

$$$$
DHA_new
     RDKit          3D

 20 19  0  0  0  0  0  0  0  0999 V2000
    2.7180   -1.0511    2.5170 C   0  0  0  0  0  0  0  0  0  0  0  0
    1.6794   -0.2655    1.8381 N   0  0  0  0  0  0  0  0  0  0  0  0
    0.5558   -0.8541    1.2652 C   0  0  0  0  0  0  0  0  0  0  0  0
    0.4323   -2.1034    1.3353 O   0  0  0  0  0  0  0  0  0  0  0  0
   -0.4728   -0.0807    0.5933 C   0  0  0  0  0  0  0  0  0  0  0  0
   -0.3616    1.2122    0.5113 C   0  0  0  0  0  0  0  0  0  0  0  0
   -1.5628   -0.7991    0.0542 N   0  0  0  0  0  0  0  0  0  0  0  0
   -2.6354   -0.2205   -0.6207 C   0  0  0  0  0  0  0  0  0  0  0  0
   -3.7360   -1.1310   -1.1445 C   0  0  0  0  0  0  0  0  0  0  0  0
   -2.8218    0.9816   -0.8618 O   0  0  0  0  0  0  0  0  0  0  0  0
    2.3146   -2.0615    2.6735 H   0  0  0  0  0  0  0  0  0  0  0  0
    2.9201   -0.5517    3.4635 H   0  0  0  0  0  0  0  0  0  0  0  0
    3.6000   -1.1437    1.8609 H   0  0  0  0  0  0  0  0  0  0  0  0
    1.8505    0.7398    1.8224 H   0  0  0  0  0  0  0  0  0  0  0  0
    0.5036    1.7321    0.9450 H   0  0  0  0  0  0  0  0  0  0  0  0
   -1.0628    1.8806    0.0375 H   0  0  0  0  0  0  0  0  0  0  0  0
   -1.5539   -1.8664    0.1792 H   0  0  0  0  0  0  0  0  0  0  0  0
   -3.7925   -1.9654   -0.4402 H   0  0  0  0  0  0  0  0  0  0  0  0
   -4.6942   -0.6140   -1.1356 H   0  0  0  0  0  0  0  0  0  0  0  0
   -3.4870   -1.4904   -2.1527 H   0  0  0  0  0  0  0  0  0  0  0  0
  1  2  1  0
  1 11  1  0
  1 12  1  0
  1 13  1  0
  2  3  1  0
  2 14  1  0
  3  4  2  0
  3  5  1  0
  5  6  2  3
  5  7  1  0
  6 15  1  0
  6 16  1  0
  7  8  1  0
  7 17  1  0
  8  9  1  0
  8 10  2  0
  9 18  1  0
  9 19  1  0
  9 20  1  0
M  END

> <RosettaParamsInstructions>
M  ROOT 7
M  POLY_N_BB 7
M  POLY_CA_BB 5
M  POLY_C_BB 3
M  POLY_O_BB 4
M  POLY_IGNORE 1 10 9 14 11 12 13 18 19 20
M  POLY_UPPER 2
M  POLY_LOWER 8
M  POLY_CHG 0
M  POLY_PROPERTIES PROTEIN POLYMER ALPHA_AA ALIPHATIC
M  END

$$$$
DHA_new
     RDKit          3D

 20 19  0  0  0  0  0  0  0  0999 V2000
    2.6642   -1.0820    2.5897 C   0  0  0  0  0  0  0  0  0  0  0  0
    1.7549   -0.2024    1.8391 N   0  0  0  0  0  0  0  0  0  0  0  0
    0.5751   -0.7889    1.3238 C   0  0  0  0  0  0  0  0  0  0  0  0
    0.3398   -2.0312    1.5198 O   0  0  0  0  0  0  0  0  0  0  0  0
   -0.4445   -0.0648    0.5517 C   0  0  0  0  0  0  0  0  0  0  0  0
   -0.2766    1.2094    0.3089 C   0  0  0  0  0  0  0  0  0  0  0  0
   -1.5770   -0.7714    0.0952 N   0  0  0  0  0  0  0  0  0  0  0  0
   -2.6361   -0.2364   -0.6491 C   0  0  0  0  0  0  0  0  0  0  0  0
   -3.7655   -1.1557   -1.0473 C   0  0  0  0  0  0  0  0  0  0  0  0
   -2.7758    0.9447   -1.0423 O   0  0  0  0  0  0  0  0  0  0  0  0
    2.6378   -2.0690    2.0882 H   0  0  0  0  0  0  0  0  0  0  0  0
    2.2691   -1.1690    3.6257 H   0  0  0  0  0  0  0  0  0  0  0  0
    3.7008   -0.6959    2.5627 H   0  0  0  0  0  0  0  0  0  0  0  0
    1.9932    0.7917    1.7106 H   0  0  0  0  0  0  0  0  0  0  0  0
    0.6293    1.7260    0.6868 H   0  0  0  0  0  0  0  0  0  0  0  0
   -0.9469    1.8569   -0.2443 H   0  0  0  0  0  0  0  0  0  0  0  0
   -1.6469   -1.8060    0.3302 H   0  0  0  0  0  0  0  0  0  0  0  0
   -3.9362   -0.9652   -2.1289 H   0  0  0  0  0  0  0  0  0  0  0  0
   -4.6858   -0.9365   -0.5060 H   0  0  0  0  0  0  0  0  0  0  0  0
   -3.4797   -2.2065   -0.8736 H   0  0  0  0  0  0  0  0  0  0  0  0
  1  2  1  0
  1 11  1  0
  1 12  1  0
  1 13  1  0
  2  3  1  0
  2 14  1  0
  3  4  2  0
  3  5  1  0
  5  6  2  3
  5  7  1  0
  6 15  1  0
  6 16  1  0
  7  8  1  0
  7 17  1  0
  8  9  1  0
  8 10  2  0
  9 18  1  0
  9 19  1  0
  9 20  1  0
M  END

> <RosettaParamsInstructions>
M  ROOT 7
M  POLY_N_BB 7
M  POLY_CA_BB 5
M  POLY_C_BB 3
M  POLY_O_BB 4
M  POLY_IGNORE 1 10 9 14 11 12 13 18 19 20
M  POLY_UPPER 2
M  POLY_LOWER 8
M  POLY_CHG 0
M  POLY_PROPERTIES PROTEIN POLYMER ALPHA_AA ALIPHATIC
M  END

$$$$
DHA_new
     RDKit          3D

 20 19  0  0  0  0  0  0  0  0999 V2000
    2.6525   -1.0280    2.6363 C   0  0  0  0  0  0  0  0  0  0  0  0
    1.6617   -0.2279    1.8944 N   0  0  0  0  0  0  0  0  0  0  0  0
    0.5466   -0.8169    1.3148 C   0  0  0  0  0  0  0  0  0  0  0  0
    0.3993   -2.0663    1.4391 O   0  0  0  0  0  0  0  0  0  0  0  0
   -0.4687   -0.0727    0.5676 C   0  0  0  0  0  0  0  0  0  0  0  0
   -0.3412    1.2109    0.4254 C   0  0  0  0  0  0  0  0  0  0  0  0
   -1.5511   -0.7911    0.0302 N   0  0  0  0  0  0  0  0  0  0  0  0
   -2.6039   -0.2469   -0.7057 C   0  0  0  0  0  0  0  0  0  0  0  0
   -3.7121   -1.1722   -1.2234 C   0  0  0  0  0  0  0  0  0  0  0  0
   -2.7362    0.9541   -0.9922 O   0  0  0  0  0  0  0  0  0  0  0  0
    3.1756   -0.3937    3.3702 H   0  0  0  0  0  0  0  0  0  0  0  0
    3.3105   -1.5694    1.9465 H   0  0  0  0  0  0  0  0  0  0  0  0
    2.0303   -1.7929    3.1855 H   0  0  0  0  0  0  0  0  0  0  0  0
    1.8470    0.7821    1.8344 H   0  0  0  0  0  0  0  0  0  0  0  0
   -1.0511    1.8040   -0.1096 H   0  0  0  0  0  0  0  0  0  0  0  0
    0.5335    1.7207    0.8719 H   0  0  0  0  0  0  0  0  0  0  0  0
   -1.5307   -1.8504    0.2242 H   0  0  0  0  0  0  0  0  0  0  0  0
   -4.0864   -0.7663   -2.1707 H   0  0  0  0  0  0  0  0  0  0  0  0
   -3.2246   -2.1333   -1.3901 H   0  0  0  0  0  0  0  0  0  0  0  0
   -4.4575   -1.1962   -0.4078 H   0  0  0  0  0  0  0  0  0  0  0  0
  1  2  1  0
  1 11  1  0
  1 12  1  0
  1 13  1  0
  2  3  1  0
  2 14  1  0
  3  4  2  0
  3  5  1  0
  5  6  2  3
  5  7  1  0
  6 15  1  0
  6 16  1  0
  7  8  1  0
  7 17  1  0
  8  9  1  0
  8 10  2  0
  9 18  1  0
  9 19  1  0
  9 20  1  0
M  END

> <RosettaParamsInstructions>
M  ROOT 7
M  POLY_N_BB 7
M  POLY_CA_BB 5
M  POLY_C_BB 3
M  POLY_O_BB 4
M  POLY_IGNORE 1 10 9 14 11 12 13 18 19 20
M  POLY_UPPER 2
M  POLY_LOWER 8
M  POLY_CHG 0
M  POLY_PROPERTIES PROTEIN POLYMER ALPHA_AA ALIPHATIC
M  END

$$$$
DHA_new
     RDKit          3D

 20 19  0  0  0  0  0  0  0  0999 V2000
    2.2576   -1.5737    2.4246 C   0  0  0  0  0  0  0  0  0  0  0  0
    1.0550   -1.2396    1.6666 N   0  0  0  0  0  0  0  0  0  0  0  0
    0.8441    0.0822    1.2649 C   0  0  0  0  0  0  0  0  0  0  0  0
    1.7032    0.9567    1.5695 O   0  0  0  0  0  0  0  0  0  0  0  0
   -0.3250    0.5041    0.5073 C   0  0  0  0  0  0  0  0  0  0  0  0
   -0.4110    1.7777    0.1871 C   0  0  0  0  0  0  0  0  0  0  0  0
   -1.2990   -0.4510    0.1542 N   0  0  0  0  0  0  0  0  0  0  0  0
   -2.4904   -0.2431   -0.5706 C   0  0  0  0  0  0  0  0  0  0  0  0
   -3.3791   -1.4286   -0.8260 C   0  0  0  0  0  0  0  0  0  0  0  0
   -2.8458    0.8678   -1.0100 O   0  0  0  0  0  0  0  0  0  0  0  0
    2.2957   -2.6561    2.6678 H   0  0  0  0  0  0  0  0  0  0  0  0
    2.1963   -1.0183    3.3815 H   0  0  0  0  0  0  0  0  0  0  0  0
    3.1769   -1.3097    1.8759 H   0  0  0  0  0  0  0  0  0  0  0  0
    0.3970   -2.0038    1.4533 H   0  0  0  0  0  0  0  0  0  0  0  0
    0.3520    2.5030    0.4686 H   0  0  0  0  0  0  0  0  0  0  0  0
   -1.2323    2.1565   -0.3626 H   0  0  0  0  0  0  0  0  0  0  0  0
   -1.1478   -1.4631    0.4559 H   0  0  0  0  0  0  0  0  0  0  0  0
   -4.4299   -1.1126   -0.6714 H   0  0  0  0  0  0  0  0  0  0  0  0
   -3.1561   -1.7941   -1.8300 H   0  0  0  0  0  0  0  0  0  0  0  0
   -3.1678   -2.2066   -0.0657 H   0  0  0  0  0  0  0  0  0  0  0  0
  1  2  1  0
  1 11  1  0
  1 12  1  0
  1 13  1  0
  2  3  1  0
  2 14  1  0
  3  4  2  0
  3  5  1  0
  5  6  2  3
  5  7  1  0
  6 15  1  0
  6 16  1  0
  7  8  1  0
  7 17  1  0
  8  9  1  0
  8 10  2  0
  9 18  1  0
  9 19  1  0
  9 20  1  0
M  END

> <RosettaParamsInstructions>
M  ROOT 7
M  POLY_N_BB 7
M  POLY_CA_BB 5
M  POLY_C_BB 3
M  POLY_O_BB 4
M  POLY_IGNORE 1 10 9 14 11 12 13 18 19 20
M  POLY_UPPER 2
M  POLY_LOWER 8
M  POLY_CHG 0
M  POLY_PROPERTIES PROTEIN POLYMER ALPHA_AA ALIPHATIC
M  END

$$$$
DHA_new
     RDKit          3D

 20 19  0  0  0  0  0  0  0  0999 V2000
    2.6021   -1.0467    2.6511 C   0  0  0  0  0  0  0  0  0  0  0  0
    1.6729   -0.2089    1.8936 N   0  0  0  0  0  0  0  0  0  0  0  0
    0.5371   -0.8128    1.3385 C   0  0  0  0  0  0  0  0  0  0  0  0
    0.3399   -2.0459    1.4990 O   0  0  0  0  0  0  0  0  0  0  0  0
   -0.4419   -0.0582    0.5695 C   0  0  0  0  0  0  0  0  0  0  0  0
   -0.2742    1.2150    0.3817 C   0  0  0  0  0  0  0  0  0  0  0  0
   -1.5515   -0.7651    0.0538 N   0  0  0  0  0  0  0  0  0  0  0  0
   -2.6029   -0.2513   -0.7044 C   0  0  0  0  0  0  0  0  0  0  0  0
   -3.7023   -1.1830   -1.1626 C   0  0  0  0  0  0  0  0  0  0  0  0
   -2.7202    0.9309   -1.0453 O   0  0  0  0  0  0  0  0  0  0  0  0
    2.0080   -1.5473    3.4460 H   0  0  0  0  0  0  0  0  0  0  0  0
    3.4364   -0.4635    3.0686 H   0  0  0  0  0  0  0  0  0  0  0  0
    2.9893   -1.8116    1.9520 H   0  0  0  0  0  0  0  0  0  0  0  0
    1.9030    0.7934    1.8057 H   0  0  0  0  0  0  0  0  0  0  0  0
   -0.9411    1.8608   -0.1721 H   0  0  0  0  0  0  0  0  0  0  0  0
    0.5898    1.7663    0.7831 H   0  0  0  0  0  0  0  0  0  0  0  0
   -1.6075   -1.8247    0.2610 H   0  0  0  0  0  0  0  0  0  0  0  0
   -3.8996   -0.9170   -2.2169 H   0  0  0  0  0  0  0  0  0  0  0  0
   -3.3346   -2.2398   -1.0947 H   0  0  0  0  0  0  0  0  0  0  0  0
   -4.6093   -1.0430   -0.5667 H   0  0  0  0  0  0  0  0  0  0  0  0
  1  2  1  0
  1 11  1  0
  1 12  1  0
  1 13  1  0
  2  3  1  0
  2 14  1  0
  3  4  2  0
  3  5  1  0
  5  6  2  3
  5  7  1  0
  6 15  1  0
  6 16  1  0
  7  8  1  0
  7 17  1  0
  8  9  1  0
  8 10  2  0
  9 18  1  0
  9 19  1  0
  9 20  1  0
M  END

> <RosettaParamsInstructions>
M  ROOT 7
M  POLY_N_BB 7
M  POLY_CA_BB 5
M  POLY_C_BB 3
M  POLY_O_BB 4
M  POLY_IGNORE 1 10 9 14 11 12 13 18 19 20
M  POLY_UPPER 2
M  POLY_LOWER 8
M  POLY_CHG 0
M  POLY_PROPERTIES PROTEIN POLYMER ALPHA_AA ALIPHATIC
M  END

$$$$
DHA_new
     RDKit          3D

 20 19  0  0  0  0  0  0  0  0999 V2000
    2.7049   -1.0554    2.5747 C   0  0  0  0  0  0  0  0  0  0  0  0
    1.7007   -0.2488    1.8601 N   0  0  0  0  0  0  0  0  0  0  0  0
    0.5606   -0.8236    1.2851 C   0  0  0  0  0  0  0  0  0  0  0  0
    0.4256   -2.0745    1.4046 O   0  0  0  0  0  0  0  0  0  0  0  0
   -0.4814   -0.0599    0.5553 C   0  0  0  0  0  0  0  0  0  0  0  0
   -0.3306    1.2313    0.4387 C   0  0  0  0  0  0  0  0  0  0  0  0
   -1.5690   -0.7903    0.0356 N   0  0  0  0  0  0  0  0  0  0  0  0
   -2.6402   -0.2685   -0.6730 C   0  0  0  0  0  0  0  0  0  0  0  0
   -3.7415   -1.1777   -1.1722 C   0  0  0  0  0  0  0  0  0  0  0  0
   -2.7683    0.9351   -0.9386 O   0  0  0  0  0  0  0  0  0  0  0  0
    2.4991   -2.1231    2.3638 H   0  0  0  0  0  0  0  0  0  0  0  0
    3.7295   -0.7429    2.3067 H   0  0  0  0  0  0  0  0  0  0  0  0
    2.4724   -0.8965    3.6572 H   0  0  0  0  0  0  0  0  0  0  0  0
    1.9470    0.7619    1.8438 H   0  0  0  0  0  0  0  0  0  0  0  0
   -1.0149    1.8784   -0.0638 H   0  0  0  0  0  0  0  0  0  0  0  0
    0.5344    1.7522    0.8614 H   0  0  0  0  0  0  0  0  0  0  0  0
   -1.5759   -1.8582    0.2009 H   0  0  0  0  0  0  0  0  0  0  0  0
   -3.6838   -2.1628   -0.6846 H   0  0  0  0  0  0  0  0  0  0  0  0
   -3.6817   -1.2517   -2.2727 H   0  0  0  0  0  0  0  0  0  0  0  0
   -4.6932   -0.6772   -0.8424 H   0  0  0  0  0  0  0  0  0  0  0  0
  1  2  1  0
  1 11  1  0
  1 12  1  0
  1 13  1  0
  2  3  1  0
  2 14  1  0
  3  4  2  0
  3  5  1  0
  5  6  2  3
  5  7  1  0
  6 15  1  0
  6 16  1  0
  7  8  1  0
  7 17  1  0
  8  9  1  0
  8 10  2  0
  9 18  1  0
  9 19  1  0
  9 20  1  0
M  END

> <RosettaParamsInstructions>
M  ROOT 7
M  POLY_N_BB 7
M  POLY_CA_BB 5
M  POLY_C_BB 3
M  POLY_O_BB 4
M  POLY_IGNORE 1 10 9 14 11 12 13 18 19 20
M  POLY_UPPER 2
M  POLY_LOWER 8
M  POLY_CHG 0
M  POLY_PROPERTIES PROTEIN POLYMER ALPHA_AA ALIPHATIC
M  END

$$$$
DHA_new
     RDKit          3D

 20 19  0  0  0  0  0  0  0  0999 V2000
    2.6826   -1.0476    2.5973 C   0  0  0  0  0  0  0  0  0  0  0  0
    1.6850   -0.2497    1.8709 N   0  0  0  0  0  0  0  0  0  0  0  0
    0.5615   -0.8375    1.3091 C   0  0  0  0  0  0  0  0  0  0  0  0
    0.4051   -2.0891    1.4326 O   0  0  0  0  0  0  0  0  0  0  0  0
   -0.4629   -0.0765    0.5733 C   0  0  0  0  0  0  0  0  0  0  0  0
   -0.3131    1.2088    0.4401 C   0  0  0  0  0  0  0  0  0  0  0  0
   -1.5639   -0.7817    0.0450 N   0  0  0  0  0  0  0  0  0  0  0  0
   -2.6347   -0.2598   -0.6770 C   0  0  0  0  0  0  0  0  0  0  0  0
   -3.7435   -1.1739   -1.1738 C   0  0  0  0  0  0  0  0  0  0  0  0
   -2.7278    0.9570   -0.9418 O   0  0  0  0  0  0  0  0  0  0  0  0
    2.4624   -1.0106    3.6815 H   0  0  0  0  0  0  0  0  0  0  0  0
    2.6162   -2.1110    2.2674 H   0  0  0  0  0  0  0  0  0  0  0  0
    3.6676   -0.6357    2.3485 H   0  0  0  0  0  0  0  0  0  0  0  0
    1.8660    0.7650    1.8028 H   0  0  0  0  0  0  0  0  0  0  0  0
    0.5538    1.7556    0.8575 H   0  0  0  0  0  0  0  0  0  0  0  0
   -0.9836    1.8878   -0.0728 H   0  0  0  0  0  0  0  0  0  0  0  0
   -1.5841   -1.8429    0.2160 H   0  0  0  0  0  0  0  0  0  0  0  0
   -4.6667   -0.5616   -1.2771 H   0  0  0  0  0  0  0  0  0  0  0  0
   -3.9578   -1.9409   -0.4060 H   0  0  0  0  0  0  0  0  0  0  0  0
   -3.4686   -1.6079   -2.1528 H   0  0  0  0  0  0  0  0  0  0  0  0
  1  2  1  0
  1 11  1  0
  1 12  1  0
  1 13  1  0
  2  3  1  0
  2 14  1  0
  3  4  2  0
  3  5  1  0
  5  6  2  3
  5  7  1  0
  6 15  1  0
  6 16  1  0
  7  8  1  0
  7 17  1  0
  8  9  1  0
  8 10  2  0
  9 18  1  0
  9 19  1  0
  9 20  1  0
M  END

> <RosettaParamsInstructions>
M  ROOT 7
M  POLY_N_BB 7
M  POLY_CA_BB 5
M  POLY_C_BB 3
M  POLY_O_BB 4
M  POLY_IGNORE 1 10 9 14 11 12 13 18 19 20
M  POLY_UPPER 2
M  POLY_LOWER 8
M  POLY_CHG 0
M  POLY_PROPERTIES PROTEIN POLYMER ALPHA_AA ALIPHATIC
M  END

$$$$
DHA_new
     RDKit          3D

 20 19  0  0  0  0  0  0  0  0999 V2000
    2.6176   -1.0360    2.6633 C   0  0  0  0  0  0  0  0  0  0  0  0
    1.6902   -0.2200    1.8807 N   0  0  0  0  0  0  0  0  0  0  0  0
    0.5438   -0.8159    1.3489 C   0  0  0  0  0  0  0  0  0  0  0  0
    0.3285   -2.0439    1.5521 O   0  0  0  0  0  0  0  0  0  0  0  0
   -0.4597   -0.0997    0.5474 C   0  0  0  0  0  0  0  0  0  0  0  0
   -0.2564    1.1633    0.3275 C   0  0  0  0  0  0  0  0  0  0  0  0
   -1.5862   -0.7863    0.0522 N   0  0  0  0  0  0  0  0  0  0  0  0
   -2.6117   -0.2550   -0.7125 C   0  0  0  0  0  0  0  0  0  0  0  0
   -3.7433   -1.1553   -1.1528 C   0  0  0  0  0  0  0  0  0  0  0  0
   -2.7031    0.9251   -1.0882 O   0  0  0  0  0  0  0  0  0  0  0  0
    3.6504   -0.7581    2.3398 H   0  0  0  0  0  0  0  0  0  0  0  0
    2.4513   -0.8099    3.7366 H   0  0  0  0  0  0  0  0  0  0  0  0
    2.4720   -2.1124    2.4390 H   0  0  0  0  0  0  0  0  0  0  0  0
    1.9532    0.7635    1.7728 H   0  0  0  0  0  0  0  0  0  0  0  0
   -0.9126    1.7718   -0.2347 H   0  0  0  0  0  0  0  0  0  0  0  0
    0.6231    1.6850    0.7179 H   0  0  0  0  0  0  0  0  0  0  0  0
   -1.6264   -1.8272    0.3105 H   0  0  0  0  0  0  0  0  0  0  0  0
   -3.5552   -1.5033   -2.1835 H   0  0  0  0  0  0  0  0  0  0  0  0
   -3.8017   -1.9774   -0.4190 H   0  0  0  0  0  0  0  0  0  0  0  0
   -4.6802   -0.5604   -1.1571 H   0  0  0  0  0  0  0  0  0  0  0  0
  1  2  1  0
  1 11  1  0
  1 12  1  0
  1 13  1  0
  2  3  1  0
  2 14  1  0
  3  4  2  0
  3  5  1  0
  5  6  2  3
  5  7  1  0
  6 15  1  0
  6 16  1  0
  7  8  1  0
  7 17  1  0
  8  9  1  0
  8 10  2  0
  9 18  1  0
  9 19  1  0
  9 20  1  0
M  END

> <RosettaParamsInstructions>
M  ROOT 7
M  POLY_N_BB 7
M  POLY_CA_BB 5
M  POLY_C_BB 3
M  POLY_O_BB 4
M  POLY_IGNORE 1 10 9 14 11 12 13 18 19 20
M  POLY_UPPER 2
M  POLY_LOWER 8
M  POLY_CHG 0
M  POLY_PROPERTIES PROTEIN POLYMER ALPHA_AA ALIPHATIC
M  END

$$$$
DHA_new
     RDKit          3D

 20 19  0  0  0  0  0  0  0  0999 V2000
    2.2363   -1.5691    2.5015 C   0  0  0  0  0  0  0  0  0  0  0  0
    1.0482   -1.2036    1.7190 N   0  0  0  0  0  0  0  0  0  0  0  0
    0.8743    0.0830    1.2122 C   0  0  0  0  0  0  0  0  0  0  0  0
    1.7617    0.9418    1.4368 O   0  0  0  0  0  0  0  0  0  0  0  0
   -0.2877    0.4780    0.4350 C   0  0  0  0  0  0  0  0  0  0  0  0
   -0.3623    1.7281   -0.0044 C   0  0  0  0  0  0  0  0  0  0  0  0
   -1.2920   -0.4586    0.1697 N   0  0  0  0  0  0  0  0  0  0  0  0
   -2.4592   -0.2496   -0.5514 C   0  0  0  0  0  0  0  0  0  0  0  0
   -3.4231   -1.3941   -0.7280 C   0  0  0  0  0  0  0  0  0  0  0  0
   -2.8162    0.8121   -1.0892 O   0  0  0  0  0  0  0  0  0  0  0  0
    2.9391   -2.1833    1.9013 H   0  0  0  0  0  0  0  0  0  0  0  0
    1.8756   -2.1410    3.3799 H   0  0  0  0  0  0  0  0  0  0  0  0
    2.7831   -0.6656    2.8498 H   0  0  0  0  0  0  0  0  0  0  0  0
    0.3732   -1.9735    1.5852 H   0  0  0  0  0  0  0  0  0  0  0  0
    0.4443    2.4378    0.2222 H   0  0  0  0  0  0  0  0  0  0  0  0
   -1.1571    2.0956   -0.5670 H   0  0  0  0  0  0  0  0  0  0  0  0
   -1.1558   -1.4454    0.5598 H   0  0  0  0  0  0  0  0  0  0  0  0
   -3.3096   -2.0440    0.1423 H   0  0  0  0  0  0  0  0  0  0  0  0
   -3.2240   -1.8871   -1.6942 H   0  0  0  0  0  0  0  0  0  0  0  0
   -4.4553   -1.0138   -0.7396 H   0  0  0  0  0  0  0  0  0  0  0  0
  1  2  1  0
  1 11  1  0
  1 12  1  0
  1 13  1  0
  2  3  1  0
  2 14  1  0
  3  4  2  0
  3  5  1  0
  5  6  2  3
  5  7  1  0
  6 15  1  0
  6 16  1  0
  7  8  1  0
  7 17  1  0
  8  9  1  0
  8 10  2  0
  9 18  1  0
  9 19  1  0
  9 20  1  0
M  END

> <RosettaParamsInstructions>
M  ROOT 7
M  POLY_N_BB 7
M  POLY_CA_BB 5
M  POLY_C_BB 3
M  POLY_O_BB 4
M  POLY_IGNORE 1 10 9 14 11 12 13 18 19 20
M  POLY_UPPER 2
M  POLY_LOWER 8
M  POLY_CHG 0
M  POLY_PROPERTIES PROTEIN POLYMER ALPHA_AA ALIPHATIC
M  END

$$$$
DHA_new
     RDKit          3D

 20 19  0  0  0  0  0  0  0  0999 V2000
    2.6384   -1.0524    2.5717 C   0  0  0  0  0  0  0  0  0  0  0  0
    1.6792   -0.2035    1.8631 N   0  0  0  0  0  0  0  0  0  0  0  0
    0.5618   -0.8247    1.3080 C   0  0  0  0  0  0  0  0  0  0  0  0
    0.3652   -2.0764    1.4021 O   0  0  0  0  0  0  0  0  0  0  0  0
   -0.4548   -0.0612    0.5799 C   0  0  0  0  0  0  0  0  0  0  0  0
   -0.3128    1.2228    0.4481 C   0  0  0  0  0  0  0  0  0  0  0  0
   -1.5667   -0.7607    0.0412 N   0  0  0  0  0  0  0  0  0  0  0  0
   -2.6345   -0.2421   -0.6761 C   0  0  0  0  0  0  0  0  0  0  0  0
   -3.7296   -1.1848   -1.1642 C   0  0  0  0  0  0  0  0  0  0  0  0
   -2.7594    0.9675   -0.9529 O   0  0  0  0  0  0  0  0  0  0  0  0
    3.6188   -0.5740    2.5725 H   0  0  0  0  0  0  0  0  0  0  0  0
    2.3260   -1.2396    3.6195 H   0  0  0  0  0  0  0  0  0  0  0  0
    2.7401   -2.0217    2.0473 H   0  0  0  0  0  0  0  0  0  0  0  0
    1.8747    0.7985    1.8103 H   0  0  0  0  0  0  0  0  0  0  0  0
    0.5353    1.7259    0.8642 H   0  0  0  0  0  0  0  0  0  0  0  0
   -1.0138    1.8334   -0.0680 H   0  0  0  0  0  0  0  0  0  0  0  0
   -1.5620   -1.8096    0.2200 H   0  0  0  0  0  0  0  0  0  0  0  0
   -4.6639   -0.6100   -1.1192 H   0  0  0  0  0  0  0  0  0  0  0  0
   -3.7525   -2.0182   -0.4358 H   0  0  0  0  0  0  0  0  0  0  0  0
   -3.4960   -1.5213   -2.1910 H   0  0  0  0  0  0  0  0  0  0  0  0
  1  2  1  0
  1 11  1  0
  1 12  1  0
  1 13  1  0
  2  3  1  0
  2 14  1  0
  3  4  2  0
  3  5  1  0
  5  6  2  3
  5  7  1  0
  6 15  1  0
  6 16  1  0
  7  8  1  0
  7 17  1  0
  8  9  1  0
  8 10  2  0
  9 18  1  0
  9 19  1  0
  9 20  1  0
M  END

> <RosettaParamsInstructions>
M  ROOT 7
M  POLY_N_BB 7
M  POLY_CA_BB 5
M  POLY_C_BB 3
M  POLY_O_BB 4
M  POLY_IGNORE 1 10 9 14 11 12 13 18 19 20
M  POLY_UPPER 2
M  POLY_LOWER 8
M  POLY_CHG 0
M  POLY_PROPERTIES PROTEIN POLYMER ALPHA_AA ALIPHATIC
M  END

$$$$
DHA_new
     RDKit          3D

 20 19  0  0  0  0  0  0  0  0999 V2000
    2.6509   -1.0565    2.5668 C   0  0  0  0  0  0  0  0  0  0  0  0
    1.6838   -0.2013    1.8473 N   0  0  0  0  0  0  0  0  0  0  0  0
    0.5689   -0.8184    1.3035 C   0  0  0  0  0  0  0  0  0  0  0  0
    0.4087   -2.0728    1.4331 O   0  0  0  0  0  0  0  0  0  0  0  0
   -0.4603   -0.0763    0.5677 C   0  0  0  0  0  0  0  0  0  0  0  0
   -0.2937    1.2197    0.4344 C   0  0  0  0  0  0  0  0  0  0  0  0
   -1.5566   -0.7891    0.0519 N   0  0  0  0  0  0  0  0  0  0  0  0
   -2.6280   -0.2602   -0.6707 C   0  0  0  0  0  0  0  0  0  0  0  0
   -3.7329   -1.1613   -1.1579 C   0  0  0  0  0  0  0  0  0  0  0  0
   -2.7299    0.9393   -0.9442 O   0  0  0  0  0  0  0  0  0  0  0  0
    2.6476   -2.0391    2.0753 H   0  0  0  0  0  0  0  0  0  0  0  0
    3.6376   -0.5980    2.5877 H   0  0  0  0  0  0  0  0  0  0  0  0
    2.2606   -1.1515    3.6127 H   0  0  0  0  0  0  0  0  0  0  0  0
    1.9398    0.8078    1.8180 H   0  0  0  0  0  0  0  0  0  0  0  0
   -0.9780    1.8812   -0.0848 H   0  0  0  0  0  0  0  0  0  0  0  0
    0.5798    1.7445    0.8531 H   0  0  0  0  0  0  0  0  0  0  0  0
   -1.5805   -1.8545    0.2277 H   0  0  0  0  0  0  0  0  0  0  0  0
   -3.3235   -2.1654   -1.3926 H   0  0  0  0  0  0  0  0  0  0  0  0
   -4.4755   -1.2836   -0.3488 H   0  0  0  0  0  0  0  0  0  0  0  0
   -4.2252   -0.7170   -2.0392 H   0  0  0  0  0  0  0  0  0  0  0  0
  1  2  1  0
  1 11  1  0
  1 12  1  0
  1 13  1  0
  2  3  1  0
  2 14  1  0
  3  4  2  0
  3  5  1  0
  5  6  2  3
  5  7  1  0
  6 15  1  0
  6 16  1  0
  7  8  1  0
  7 17  1  0
  8  9  1  0
  8 10  2  0
  9 18  1  0
  9 19  1  0
  9 20  1  0
M  END

> <RosettaParamsInstructions>
M  ROOT 7
M  POLY_N_BB 7
M  POLY_CA_BB 5
M  POLY_C_BB 3
M  POLY_O_BB 4
M  POLY_IGNORE 1 10 9 14 11 12 13 18 19 20
M  POLY_UPPER 2
M  POLY_LOWER 8
M  POLY_CHG 0
M  POLY_PROPERTIES PROTEIN POLYMER ALPHA_AA ALIPHATIC
M  END

$$$$
DHA_new
     RDKit          3D

 20 19  0  0  0  0  0  0  0  0999 V2000
    2.6586   -1.0549    2.5571 C   0  0  0  0  0  0  0  0  0  0  0  0
    1.6779   -0.2358    1.8507 N   0  0  0  0  0  0  0  0  0  0  0  0
    0.5579   -0.8326    1.2987 C   0  0  0  0  0  0  0  0  0  0  0  0
    0.3867   -2.0931    1.4086 O   0  0  0  0  0  0  0  0  0  0  0  0
   -0.4680   -0.0644    0.5744 C   0  0  0  0  0  0  0  0  0  0  0  0
   -0.3044    1.2244    0.4554 C   0  0  0  0  0  0  0  0  0  0  0  0
   -1.5723   -0.7754    0.0505 N   0  0  0  0  0  0  0  0  0  0  0  0
   -2.6424   -0.2387   -0.6609 C   0  0  0  0  0  0  0  0  0  0  0  0
   -3.7465   -1.1491   -1.1516 C   0  0  0  0  0  0  0  0  0  0  0  0
   -2.7881    0.9583   -0.9446 O   0  0  0  0  0  0  0  0  0  0  0  0
    3.4360   -1.3611    1.8548 H   0  0  0  0  0  0  0  0  0  0  0  0
    3.0972   -0.4907    3.4031 H   0  0  0  0  0  0  0  0  0  0  0  0
    2.1195   -1.9229    2.9815 H   0  0  0  0  0  0  0  0  0  0  0  0
    1.8846    0.7649    1.8046 H   0  0  0  0  0  0  0  0  0  0  0  0
    0.5472    1.7558    0.8622 H   0  0  0  0  0  0  0  0  0  0  0  0
   -1.0105    1.8533   -0.0597 H   0  0  0  0  0  0  0  0  0  0  0  0
   -1.5730   -1.8330    0.2259 H   0  0  0  0  0  0  0  0  0  0  0  0
   -3.7686   -2.0219   -0.4448 H   0  0  0  0  0  0  0  0  0  0  0  0
   -3.4028   -1.5191   -2.1391 H   0  0  0  0  0  0  0  0  0  0  0  0
   -4.6954   -0.6163   -1.1860 H   0  0  0  0  0  0  0  0  0  0  0  0
  1  2  1  0
  1 11  1  0
  1 12  1  0
  1 13  1  0
  2  3  1  0
  2 14  1  0
  3  4  2  0
  3  5  1  0
  5  6  2  3
  5  7  1  0
  6 15  1  0
  6 16  1  0
  7  8  1  0
  7 17  1  0
  8  9  1  0
  8 10  2  0
  9 18  1  0
  9 19  1  0
  9 20  1  0
M  END

> <RosettaParamsInstructions>
M  ROOT 7
M  POLY_N_BB 7
M  POLY_CA_BB 5
M  POLY_C_BB 3
M  POLY_O_BB 4
M  POLY_IGNORE 1 10 9 14 11 12 13 18 19 20
M  POLY_UPPER 2
M  POLY_LOWER 8
M  POLY_CHG 0
M  POLY_PROPERTIES PROTEIN POLYMER ALPHA_AA ALIPHATIC
M  END

$$$$
DHA_new
     RDKit          3D

 20 19  0  0  0  0  0  0  0  0999 V2000
    2.2527   -1.5883    2.4608 C   0  0  0  0  0  0  0  0  0  0  0  0
    1.0568   -1.2308    1.6884 N   0  0  0  0  0  0  0  0  0  0  0  0
    0.8355    0.0980    1.3036 C   0  0  0  0  0  0  0  0  0  0  0  0
    1.6861    0.9774    1.6358 O   0  0  0  0  0  0  0  0  0  0  0  0
   -0.3409    0.4867    0.5367 C   0  0  0  0  0  0  0  0  0  0  0  0
   -0.4848    1.7584    0.2084 C   0  0  0  0  0  0  0  0  0  0  0  0
   -1.2833   -0.4764    0.1664 N   0  0  0  0  0  0  0  0  0  0  0  0
   -2.4575   -0.2450   -0.5691 C   0  0  0  0  0  0  0  0  0  0  0  0
   -3.3687   -1.4162   -0.8811 C   0  0  0  0  0  0  0  0  0  0  0  0
   -2.8436    0.8471   -1.0055 O   0  0  0  0  0  0  0  0  0  0  0  0
    2.0368   -1.5555    3.5390 H   0  0  0  0  0  0  0  0  0  0  0  0
    2.6079   -2.5728    2.1251 H   0  0  0  0  0  0  0  0  0  0  0  0
    3.0705   -0.8475    2.2702 H   0  0  0  0  0  0  0  0  0  0  0  0
    0.4248   -2.0056    1.4647 H   0  0  0  0  0  0  0  0  0  0  0  0
   -1.2824    2.1708   -0.3401 H   0  0  0  0  0  0  0  0  0  0  0  0
    0.2836    2.4941    0.5198 H   0  0  0  0  0  0  0  0  0  0  0  0
   -1.1174   -1.4997    0.4601 H   0  0  0  0  0  0  0  0  0  0  0  0
   -3.0629   -1.8158   -1.8796 H   0  0  0  0  0  0  0  0  0  0  0  0
   -4.4118   -1.0718   -0.8695 H   0  0  0  0  0  0  0  0  0  0  0  0
   -3.2077   -2.1593   -0.0931 H   0  0  0  0  0  0  0  0  0  0  0  0
  1  2  1  0
  1 11  1  0
  1 12  1  0
  1 13  1  0
  2  3  1  0
  2 14  1  0
  3  4  2  0
  3  5  1  0
  5  6  2  3
  5  7  1  0
  6 15  1  0
  6 16  1  0
  7  8  1  0
  7 17  1  0
  8  9  1  0
  8 10  2  0
  9 18  1  0
  9 19  1  0
  9 20  1  0
M  END

> <RosettaParamsInstructions>
M  ROOT 7
M  POLY_N_BB 7
M  POLY_CA_BB 5
M  POLY_C_BB 3
M  POLY_O_BB 4
M  POLY_IGNORE 1 10 9 14 11 12 13 18 19 20
M  POLY_UPPER 2
M  POLY_LOWER 8
M  POLY_CHG 0
M  POLY_PROPERTIES PROTEIN POLYMER ALPHA_AA ALIPHATIC
M  END

$$$$
DHA_new
     RDKit          3D

 20 19  0  0  0  0  0  0  0  0999 V2000
    2.6661   -1.0918    2.5863 C   0  0  0  0  0  0  0  0  0  0  0  0
    1.6928   -0.2333    1.8698 N   0  0  0  0  0  0  0  0  0  0  0  0
    0.5524   -0.8219    1.3085 C   0  0  0  0  0  0  0  0  0  0  0  0
    0.3751   -2.0585    1.4210 O   0  0  0  0  0  0  0  0  0  0  0  0
   -0.4599   -0.0375    0.5824 C   0  0  0  0  0  0  0  0  0  0  0  0
   -0.3320    1.2543    0.4315 C   0  0  0  0  0  0  0  0  0  0  0  0
   -1.5747   -0.7290    0.0539 N   0  0  0  0  0  0  0  0  0  0  0  0
   -2.6620   -0.2330   -0.6658 C   0  0  0  0  0  0  0  0  0  0  0  0
   -3.7315   -1.1999   -1.1198 C   0  0  0  0  0  0  0  0  0  0  0  0
   -2.7809    0.9730   -0.9453 O   0  0  0  0  0  0  0  0  0  0  0  0
    2.0846   -1.9342    2.9876 H   0  0  0  0  0  0  0  0  0  0  0  0
    3.3886   -1.4139    1.8051 H   0  0  0  0  0  0  0  0  0  0  0  0
    3.1537   -0.4982    3.3770 H   0  0  0  0  0  0  0  0  0  0  0  0
    1.9425    0.7784    1.8383 H   0  0  0  0  0  0  0  0  0  0  0  0
   -1.0252    1.8918   -0.0833 H   0  0  0  0  0  0  0  0  0  0  0  0
    0.5661    1.7263    0.8721 H   0  0  0  0  0  0  0  0  0  0  0  0
   -1.5783   -1.7967    0.2380 H   0  0  0  0  0  0  0  0  0  0  0  0
   -4.5891   -1.1665   -0.4369 H   0  0  0  0  0  0  0  0  0  0  0  0
   -3.2680   -2.1894   -1.2212 H   0  0  0  0  0  0  0  0  0  0  0  0
   -4.0269   -0.8723   -2.1586 H   0  0  0  0  0  0  0  0  0  0  0  0
  1  2  1  0
  1 11  1  0
  1 12  1  0
  1 13  1  0
  2  3  1  0
  2 14  1  0
  3  4  2  0
  3  5  1  0
  5  6  2  3
  5  7  1  0
  6 15  1  0
  6 16  1  0
  7  8  1  0
  7 17  1  0
  8  9  1  0
  8 10  2  0
  9 18  1  0
  9 19  1  0
  9 20  1  0
M  END

> <RosettaParamsInstructions>
M  ROOT 7
M  POLY_N_BB 7
M  POLY_CA_BB 5
M  POLY_C_BB 3
M  POLY_O_BB 4
M  POLY_IGNORE 1 10 9 14 11 12 13 18 19 20
M  POLY_UPPER 2
M  POLY_LOWER 8
M  POLY_CHG 0
M  POLY_PROPERTIES PROTEIN POLYMER ALPHA_AA ALIPHATIC
M  END

$$$$
DHA_new
     RDKit          3D

 20 19  0  0  0  0  0  0  0  0999 V2000
    2.6426   -1.0475    2.6303 C   0  0  0  0  0  0  0  0  0  0  0  0
    1.6934   -0.2183    1.8738 N   0  0  0  0  0  0  0  0  0  0  0  0
    0.5333   -0.7937    1.3171 C   0  0  0  0  0  0  0  0  0  0  0  0
    0.3628   -2.0354    1.5032 O   0  0  0  0  0  0  0  0  0  0  0  0
   -0.4666   -0.0490    0.5500 C   0  0  0  0  0  0  0  0  0  0  0  0
   -0.2999    1.2189    0.3556 C   0  0  0  0  0  0  0  0  0  0  0  0
   -1.5635   -0.7761    0.0661 N   0  0  0  0  0  0  0  0  0  0  0  0
   -2.6298   -0.2670   -0.6858 C   0  0  0  0  0  0  0  0  0  0  0  0
   -3.7613   -1.1515   -1.1537 C   0  0  0  0  0  0  0  0  0  0  0  0
   -2.7216    0.9207   -1.0154 O   0  0  0  0  0  0  0  0  0  0  0  0
    3.1989   -0.4718    3.3721 H   0  0  0  0  0  0  0  0  0  0  0  0
    2.0661   -1.8483    3.1460 H   0  0  0  0  0  0  0  0  0  0  0  0
    3.3692   -1.4957    1.9223 H   0  0  0  0  0  0  0  0  0  0  0  0
    1.9762    0.7820    1.8103 H   0  0  0  0  0  0  0  0  0  0  0  0
   -0.9969    1.8259   -0.1996 H   0  0  0  0  0  0  0  0  0  0  0  0
    0.5988    1.6954    0.7797 H   0  0  0  0  0  0  0  0  0  0  0  0
   -1.6237   -1.8399    0.2767 H   0  0  0  0  0  0  0  0  0  0  0  0
   -3.2793   -1.9089   -1.8149 H   0  0  0  0  0  0  0  0  0  0  0  0
   -4.2076   -1.5923   -0.2563 H   0  0  0  0  0  0  0  0  0  0  0  0
   -4.4977   -0.5995   -1.7369 H   0  0  0  0  0  0  0  0  0  0  0  0
  1  2  1  0
  1 11  1  0
  1 12  1  0
  1 13  1  0
  2  3  1  0
  2 14  1  0
  3  4  2  0
  3  5  1  0
  5  6  2  3
  5  7  1  0
  6 15  1  0
  6 16  1  0
  7  8  1  0
  7 17  1  0
  8  9  1  0
  8 10  2  0
  9 18  1  0
  9 19  1  0
  9 20  1  0
M  END

> <RosettaParamsInstructions>
M  ROOT 7
M  POLY_N_BB 7
M  POLY_CA_BB 5
M  POLY_C_BB 3
M  POLY_O_BB 4
M  POLY_IGNORE 1 10 9 14 11 12 13 18 19 20
M  POLY_UPPER 2
M  POLY_LOWER 8
M  POLY_CHG 0
M  POLY_PROPERTIES PROTEIN POLYMER ALPHA_AA ALIPHATIC
M  END

$$$$
DHA_new
     RDKit          3D

 20 19  0  0  0  0  0  0  0  0999 V2000
    2.6429   -1.0580    2.5740 C   0  0  0  0  0  0  0  0  0  0  0  0
    1.6799   -0.2041    1.8522 N   0  0  0  0  0  0  0  0  0  0  0  0
    0.5476   -0.8273    1.3057 C   0  0  0  0  0  0  0  0  0  0  0  0
    0.3839   -2.0673    1.4400 O   0  0  0  0  0  0  0  0  0  0  0  0
   -0.4597   -0.0821    0.5783 C   0  0  0  0  0  0  0  0  0  0  0  0
   -0.3159    1.2015    0.4243 C   0  0  0  0  0  0  0  0  0  0  0  0
   -1.5705   -0.7746    0.0571 N   0  0  0  0  0  0  0  0  0  0  0  0
   -2.6464   -0.2456   -0.6704 C   0  0  0  0  0  0  0  0  0  0  0  0
   -3.7417   -1.1935   -1.1350 C   0  0  0  0  0  0  0  0  0  0  0  0
   -2.7575    0.9674   -0.9604 O   0  0  0  0  0  0  0  0  0  0  0  0
    3.6803   -0.6901    2.3972 H   0  0  0  0  0  0  0  0  0  0  0  0
    2.5719   -2.0794    2.1874 H   0  0  0  0  0  0  0  0  0  0  0  0
    2.4238   -1.0300    3.6456 H   0  0  0  0  0  0  0  0  0  0  0  0
    1.9460    0.7908    1.8233 H   0  0  0  0  0  0  0  0  0  0  0  0
   -0.9866    1.8774   -0.0933 H   0  0  0  0  0  0  0  0  0  0  0  0
    0.5684    1.7296    0.8435 H   0  0  0  0  0  0  0  0  0  0  0  0
   -1.6148   -1.8457    0.2298 H   0  0  0  0  0  0  0  0  0  0  0  0
   -4.7033   -0.6603   -0.9900 H   0  0  0  0  0  0  0  0  0  0  0  0
   -3.6821   -2.1299   -0.5524 H   0  0  0  0  0  0  0  0  0  0  0  0
   -3.5728   -1.3311   -2.2158 H   0  0  0  0  0  0  0  0  0  0  0  0
  1  2  1  0
  1 11  1  0
  1 12  1  0
  1 13  1  0
  2  3  1  0
  2 14  1  0
  3  4  2  0
  3  5  1  0
  5  6  2  3
  5  7  1  0
  6 15  1  0
  6 16  1  0
  7  8  1  0
  7 17  1  0
  8  9  1  0
  8 10  2  0
  9 18  1  0
  9 19  1  0
  9 20  1  0
M  END

> <RosettaParamsInstructions>
M  ROOT 7
M  POLY_N_BB 7
M  POLY_CA_BB 5
M  POLY_C_BB 3
M  POLY_O_BB 4
M  POLY_IGNORE 1 10 9 14 11 12 13 18 19 20
M  POLY_UPPER 2
M  POLY_LOWER 8
M  POLY_CHG 0
M  POLY_PROPERTIES PROTEIN POLYMER ALPHA_AA ALIPHATIC
M  END

$$$$
DHA_new
     RDKit          3D

 20 19  0  0  0  0  0  0  0  0999 V2000
    2.6458   -1.0191    2.6675 C   0  0  0  0  0  0  0  0  0  0  0  0
    1.6910   -0.2330    1.8740 N   0  0  0  0  0  0  0  0  0  0  0  0
    0.5464   -0.8289    1.3504 C   0  0  0  0  0  0  0  0  0  0  0  0
    0.2935   -2.0732    1.5441 O   0  0  0  0  0  0  0  0  0  0  0  0
   -0.4308   -0.0861    0.5555 C   0  0  0  0  0  0  0  0  0  0  0  0
   -0.2254    1.1939    0.3233 C   0  0  0  0  0  0  0  0  0  0  0  0
   -1.5756   -0.7699    0.0563 N   0  0  0  0  0  0  0  0  0  0  0  0
   -2.6211   -0.2760   -0.7106 C   0  0  0  0  0  0  0  0  0  0  0  0
   -3.7670   -1.1503   -1.1576 C   0  0  0  0  0  0  0  0  0  0  0  0
   -2.6924    0.9071   -1.0824 O   0  0  0  0  0  0  0  0  0  0  0  0
    3.2297   -0.3718    3.3231 H   0  0  0  0  0  0  0  0  0  0  0  0
    2.0327   -1.7185    3.2651 H   0  0  0  0  0  0  0  0  0  0  0  0
    3.2872   -1.6002    2.0068 H   0  0  0  0  0  0  0  0  0  0  0  0
    1.9083    0.7576    1.7294 H   0  0  0  0  0  0  0  0  0  0  0  0
    0.6506    1.7196    0.7047 H   0  0  0  0  0  0  0  0  0  0  0  0
   -0.9029    1.8141   -0.2570 H   0  0  0  0  0  0  0  0  0  0  0  0
   -1.6232   -1.8146    0.3180 H   0  0  0  0  0  0  0  0  0  0  0  0
   -3.6706   -1.3685   -2.2376 H   0  0  0  0  0  0  0  0  0  0  0  0
   -3.6839   -2.1190   -0.6263 H   0  0  0  0  0  0  0  0  0  0  0  0
   -4.6987   -0.6155   -0.9058 H   0  0  0  0  0  0  0  0  0  0  0  0
  1  2  1  0
  1 11  1  0
  1 12  1  0
  1 13  1  0
  2  3  1  0
  2 14  1  0
  3  4  2  0
  3  5  1  0
  5  6  2  3
  5  7  1  0
  6 15  1  0
  6 16  1  0
  7  8  1  0
  7 17  1  0
  8  9  1  0
  8 10  2  0
  9 18  1  0
  9 19  1  0
  9 20  1  0
M  END

> <RosettaParamsInstructions>
M  ROOT 7
M  POLY_N_BB 7
M  POLY_CA_BB 5
M  POLY_C_BB 3
M  POLY_O_BB 4
M  POLY_IGNORE 1 10 9 14 11 12 13 18 19 20
M  POLY_UPPER 2
M  POLY_LOWER 8
M  POLY_CHG 0
M  POLY_PROPERTIES PROTEIN POLYMER ALPHA_AA ALIPHATIC
M  END

$$$$
DHA_new
     RDKit          3D

 20 19  0  0  0  0  0  0  0  0999 V2000
    2.6827   -1.0696    2.5798 C   0  0  0  0  0  0  0  0  0  0  0  0
    1.6864   -0.2481    1.8615 N   0  0  0  0  0  0  0  0  0  0  0  0
    0.5506   -0.8558    1.2956 C   0  0  0  0  0  0  0  0  0  0  0  0
    0.4006   -2.1192    1.4148 O   0  0  0  0  0  0  0  0  0  0  0  0
   -0.4750   -0.0824    0.5681 C   0  0  0  0  0  0  0  0  0  0  0  0
   -0.3274    1.2114    0.4425 C   0  0  0  0  0  0  0  0  0  0  0  0
   -1.5716   -0.7630    0.0371 N   0  0  0  0  0  0  0  0  0  0  0  0
   -2.6440   -0.2225   -0.6797 C   0  0  0  0  0  0  0  0  0  0  0  0
   -3.7462   -1.1492   -1.1736 C   0  0  0  0  0  0  0  0  0  0  0  0
   -2.7388    0.9897   -0.9338 O   0  0  0  0  0  0  0  0  0  0  0  0
    2.2860   -2.0875    2.7476 H   0  0  0  0  0  0  0  0  0  0  0  0
    3.5977   -1.0532    1.9833 H   0  0  0  0  0  0  0  0  0  0  0  0
    2.8314   -0.5572    3.5474 H   0  0  0  0  0  0  0  0  0  0  0  0
    1.9025    0.7664    1.8218 H   0  0  0  0  0  0  0  0  0  0  0  0
    0.5451    1.7299    0.8688 H   0  0  0  0  0  0  0  0  0  0  0  0
   -1.0346    1.8112   -0.0701 H   0  0  0  0  0  0  0  0  0  0  0  0
   -1.5572   -1.8300    0.2204 H   0  0  0  0  0  0  0  0  0  0  0  0
   -3.5036   -1.5448   -2.1587 H   0  0  0  0  0  0  0  0  0  0  0  0
   -4.6971   -0.6105   -1.1839 H   0  0  0  0  0  0  0  0  0  0  0  0
   -3.7940   -1.9680   -0.4480 H   0  0  0  0  0  0  0  0  0  0  0  0
  1  2  1  0
  1 11  1  0
  1 12  1  0
  1 13  1  0
  2  3  1  0
  2 14  1  0
  3  4  2  0
  3  5  1  0
  5  6  2  3
  5  7  1  0
  6 15  1  0
  6 16  1  0
  7  8  1  0
  7 17  1  0
  8  9  1  0
  8 10  2  0
  9 18  1  0
  9 19  1  0
  9 20  1  0
M  END

> <RosettaParamsInstructions>
M  ROOT 7
M  POLY_N_BB 7
M  POLY_CA_BB 5
M  POLY_C_BB 3
M  POLY_O_BB 4
M  POLY_IGNORE 1 10 9 14 11 12 13 18 19 20
M  POLY_UPPER 2
M  POLY_LOWER 8
M  POLY_CHG 0
M  POLY_PROPERTIES PROTEIN POLYMER ALPHA_AA ALIPHATIC
M  END

$$$$
DHA_new
     RDKit          3D

 20 19  0  0  0  0  0  0  0  0999 V2000
    2.6049   -1.0263    2.6683 C   0  0  0  0  0  0  0  0  0  0  0  0
    1.6841   -0.1864    1.8786 N   0  0  0  0  0  0  0  0  0  0  0  0
    0.5417   -0.8097    1.3500 C   0  0  0  0  0  0  0  0  0  0  0  0
    0.3274   -2.0508    1.5556 O   0  0  0  0  0  0  0  0  0  0  0  0
   -0.4311   -0.0782    0.5578 C   0  0  0  0  0  0  0  0  0  0  0  0
   -0.2521    1.1832    0.3252 C   0  0  0  0  0  0  0  0  0  0  0  0
   -1.5468   -0.7810    0.0671 N   0  0  0  0  0  0  0  0  0  0  0  0
   -2.6037   -0.2885   -0.7117 C   0  0  0  0  0  0  0  0  0  0  0  0
   -3.7304   -1.1876   -1.1560 C   0  0  0  0  0  0  0  0  0  0  0  0
   -2.7013    0.8964   -1.0925 O   0  0  0  0  0  0  0  0  0  0  0  0
    3.6048   -0.5499    2.7277 H   0  0  0  0  0  0  0  0  0  0  0  0
    2.7252   -1.9839    2.1345 H   0  0  0  0  0  0  0  0  0  0  0  0
    2.1679   -1.2182    3.6650 H   0  0  0  0  0  0  0  0  0  0  0  0
    1.9321    0.7974    1.7633 H   0  0  0  0  0  0  0  0  0  0  0  0
   -0.9246    1.7744   -0.2456 H   0  0  0  0  0  0  0  0  0  0  0  0
    0.6272    1.6791    0.7277 H   0  0  0  0  0  0  0  0  0  0  0  0
   -1.5886   -1.8204    0.3233 H   0  0  0  0  0  0  0  0  0  0  0  0
   -3.8819   -0.9776   -2.2293 H   0  0  0  0  0  0  0  0  0  0  0  0
   -3.5270   -2.2375   -0.9376 H   0  0  0  0  0  0  0  0  0  0  0  0
   -4.6343   -0.7870   -0.6306 H   0  0  0  0  0  0  0  0  0  0  0  0
  1  2  1  0
  1 11  1  0
  1 12  1  0
  1 13  1  0
  2  3  1  0
  2 14  1  0
  3  4  2  0
  3  5  1  0
  5  6  2  3
  5  7  1  0
  6 15  1  0
  6 16  1  0
  7  8  1  0
  7 17  1  0
  8  9  1  0
  8 10  2  0
  9 18  1  0
  9 19  1  0
  9 20  1  0
M  END

> <RosettaParamsInstructions>
M  ROOT 7
M  POLY_N_BB 7
M  POLY_CA_BB 5
M  POLY_C_BB 3
M  POLY_O_BB 4
M  POLY_IGNORE 1 10 9 14 11 12 13 18 19 20
M  POLY_UPPER 2
M  POLY_LOWER 8
M  POLY_CHG 0
M  POLY_PROPERTIES PROTEIN POLYMER ALPHA_AA ALIPHATIC
M  END

$$$$
DHA_new
     RDKit          3D

 20 19  0  0  0  0  0  0  0  0999 V2000
    2.2521   -1.5996    2.4413 C   0  0  0  0  0  0  0  0  0  0  0  0
    1.0541   -1.2455    1.6712 N   0  0  0  0  0  0  0  0  0  0  0  0
    0.8290    0.0903    1.3323 C   0  0  0  0  0  0  0  0  0  0  0  0
    1.6539    0.9626    1.6916 O   0  0  0  0  0  0  0  0  0  0  0  0
   -0.3653    0.4909    0.5574 C   0  0  0  0  0  0  0  0  0  0  0  0
   -0.5018    1.7735    0.2794 C   0  0  0  0  0  0  0  0  0  0  0  0
   -1.2830   -0.5039    0.1614 N   0  0  0  0  0  0  0  0  0  0  0  0
   -2.4484   -0.2431   -0.5749 C   0  0  0  0  0  0  0  0  0  0  0  0
   -3.3306   -1.4295   -0.9204 C   0  0  0  0  0  0  0  0  0  0  0  0
   -2.8383    0.8552   -0.9760 O   0  0  0  0  0  0  0  0  0  0  0  0
    2.1507   -1.3130    3.5070 H   0  0  0  0  0  0  0  0  0  0  0  0
    2.5380   -2.6469    2.2831 H   0  0  0  0  0  0  0  0  0  0  0  0
    3.0699   -0.9663    2.0205 H   0  0  0  0  0  0  0  0  0  0  0  0
    0.4422   -2.0313    1.4260 H   0  0  0  0  0  0  0  0  0  0  0  0
   -1.3010    2.1984   -0.2631 H   0  0  0  0  0  0  0  0  0  0  0  0
    0.2589    2.4782    0.6261 H   0  0  0  0  0  0  0  0  0  0  0  0
   -1.1059   -1.5087    0.4210 H   0  0  0  0  0  0  0  0  0  0  0  0
   -2.8110   -2.3733   -0.7397 H   0  0  0  0  0  0  0  0  0  0  0  0
   -4.2027   -1.3582   -0.2369 H   0  0  0  0  0  0  0  0  0  0  0  0
   -3.6673   -1.2820   -1.9664 H   0  0  0  0  0  0  0  0  0  0  0  0
  1  2  1  0
  1 11  1  0
  1 12  1  0
  1 13  1  0
  2  3  1  0
  2 14  1  0
  3  4  2  0
  3  5  1  0
  5  6  2  3
  5  7  1  0
  6 15  1  0
  6 16  1  0
  7  8  1  0
  7 17  1  0
  8  9  1  0
  8 10  2  0
  9 18  1  0
  9 19  1  0
  9 20  1  0
M  END

> <RosettaParamsInstructions>
M  ROOT 7
M  POLY_N_BB 7
M  POLY_CA_BB 5
M  POLY_C_BB 3
M  POLY_O_BB 4
M  POLY_IGNORE 1 10 9 14 11 12 13 18 19 20
M  POLY_UPPER 2
M  POLY_LOWER 8
M  POLY_CHG 0
M  POLY_PROPERTIES PROTEIN POLYMER ALPHA_AA ALIPHATIC
M  END

$$$$
DHA_new
     RDKit          3D

 20 19  0  0  0  0  0  0  0  0999 V2000
    2.6992   -1.0474    2.5919 C   0  0  0  0  0  0  0  0  0  0  0  0
    1.6677   -0.2345    1.9267 N   0  0  0  0  0  0  0  0  0  0  0  0
    0.5654   -0.8164    1.2912 C   0  0  0  0  0  0  0  0  0  0  0  0
    0.4985   -2.0952    1.3172 O   0  0  0  0  0  0  0  0  0  0  0  0
   -0.5184   -0.0797    0.5984 C   0  0  0  0  0  0  0  0  0  0  0  0
   -0.4368    1.2162    0.5804 C   0  0  0  0  0  0  0  0  0  0  0  0
   -1.5684   -0.8033    0.0019 N   0  0  0  0  0  0  0  0  0  0  0  0
   -2.6443   -0.2458   -0.6768 C   0  0  0  0  0  0  0  0  0  0  0  0
   -3.6994   -1.1483   -1.2672 C   0  0  0  0  0  0  0  0  0  0  0  0
   -2.8037    0.9698   -0.8361 O   0  0  0  0  0  0  0  0  0  0  0  0
    2.8575   -0.6655    3.6174 H   0  0  0  0  0  0  0  0  0  0  0  0
    3.6011   -0.9795    1.9535 H   0  0  0  0  0  0  0  0  0  0  0  0
    2.3664   -2.0928    2.5998 H   0  0  0  0  0  0  0  0  0  0  0  0
    1.8339    0.7779    1.9745 H   0  0  0  0  0  0  0  0  0  0  0  0
   -1.1472    1.8615    0.1179 H   0  0  0  0  0  0  0  0  0  0  0  0
    0.4075    1.7119    1.0646 H   0  0  0  0  0  0  0  0  0  0  0  0
   -1.5020   -1.8702    0.0973 H   0  0  0  0  0  0  0  0  0  0  0  0
   -3.8026   -2.0277   -0.6212 H   0  0  0  0  0  0  0  0  0  0  0  0
   -3.3049   -1.4424   -2.2601 H   0  0  0  0  0  0  0  0  0  0  0  0
   -4.6761   -0.6407   -1.3307 H   0  0  0  0  0  0  0  0  0  0  0  0
  1  2  1  0
  1 11  1  0
  1 12  1  0
  1 13  1  0
  2  3  1  0
  2 14  1  0
  3  4  2  0
  3  5  1  0
  5  6  2  3
  5  7  1  0
  6 15  1  0
  6 16  1  0
  7  8  1  0
  7 17  1  0
  8  9  1  0
  8 10  2  0
  9 18  1  0
  9 19  1  0
  9 20  1  0
M  END

> <RosettaParamsInstructions>
M  ROOT 7
M  POLY_N_BB 7
M  POLY_CA_BB 5
M  POLY_C_BB 3
M  POLY_O_BB 4
M  POLY_IGNORE 1 10 9 14 11 12 13 18 19 20
M  POLY_UPPER 2
M  POLY_LOWER 8
M  POLY_CHG 0
M  POLY_PROPERTIES PROTEIN POLYMER ALPHA_AA ALIPHATIC
M  END

$$$$
DHA_new
     RDKit          3D

 20 19  0  0  0  0  0  0  0  0999 V2000
    2.2665   -1.6079    2.4604 C   0  0  0  0  0  0  0  0  0  0  0  0
    1.0576   -1.2798    1.6873 N   0  0  0  0  0  0  0  0  0  0  0  0
    0.8380    0.0581    1.3243 C   0  0  0  0  0  0  0  0  0  0  0  0
    1.6879    0.9386    1.6743 O   0  0  0  0  0  0  0  0  0  0  0  0
   -0.3488    0.5009    0.5443 C   0  0  0  0  0  0  0  0  0  0  0  0
   -0.4608    1.7823    0.2549 C   0  0  0  0  0  0  0  0  0  0  0  0
   -1.3126   -0.4445    0.1382 N   0  0  0  0  0  0  0  0  0  0  0  0
   -2.4816   -0.2256   -0.5923 C   0  0  0  0  0  0  0  0  0  0  0  0
   -3.3593   -1.3999   -0.9076 C   0  0  0  0  0  0  0  0  0  0  0  0
   -2.8493    0.8760   -1.0018 O   0  0  0  0  0  0  0  0  0  0  0  0
    2.1542   -2.5315    3.0318 H   0  0  0  0  0  0  0  0  0  0  0  0
    2.4885   -0.7373    3.1097 H   0  0  0  0  0  0  0  0  0  0  0  0
    3.1367   -1.7106    1.7676 H   0  0  0  0  0  0  0  0  0  0  0  0
    0.4248   -2.0671    1.4497 H   0  0  0  0  0  0  0  0  0  0  0  0
   -1.2761    2.1634   -0.2944 H   0  0  0  0  0  0  0  0  0  0  0  0
    0.3060    2.4777    0.5878 H   0  0  0  0  0  0  0  0  0  0  0  0
   -1.1058   -1.4584    0.4373 H   0  0  0  0  0  0  0  0  0  0  0  0
   -4.2356   -1.3488   -0.2428 H   0  0  0  0  0  0  0  0  0  0  0  0
   -2.8377   -2.3412   -0.7284 H   0  0  0  0  0  0  0  0  0  0  0  0
   -3.6991   -1.2967   -1.9595 H   0  0  0  0  0  0  0  0  0  0  0  0
  1  2  1  0
  1 11  1  0
  1 12  1  0
  1 13  1  0
  2  3  1  0
  2 14  1  0
  3  4  2  0
  3  5  1  0
  5  6  2  3
  5  7  1  0
  6 15  1  0
  6 16  1  0
  7  8  1  0
  7 17  1  0
  8  9  1  0
  8 10  2  0
  9 18  1  0
  9 19  1  0
  9 20  1  0
M  END

> <RosettaParamsInstructions>
M  ROOT 7
M  POLY_N_BB 7
M  POLY_CA_BB 5
M  POLY_C_BB 3
M  POLY_O_BB 4
M  POLY_IGNORE 1 10 9 14 11 12 13 18 19 20
M  POLY_UPPER 2
M  POLY_LOWER 8
M  POLY_CHG 0
M  POLY_PROPERTIES PROTEIN POLYMER ALPHA_AA ALIPHATIC
M  END

$$$$
DHA_new
     RDKit          3D

 20 19  0  0  0  0  0  0  0  0999 V2000
    2.6471   -1.0815    2.5741 C   0  0  0  0  0  0  0  0  0  0  0  0
    1.6783   -0.2246    1.9199 N   0  0  0  0  0  0  0  0  0  0  0  0
    0.5651   -0.8054    1.3045 C   0  0  0  0  0  0  0  0  0  0  0  0
    0.4228   -2.0761    1.3299 O   0  0  0  0  0  0  0  0  0  0  0  0
   -0.4757   -0.0476    0.6159 C   0  0  0  0  0  0  0  0  0  0  0  0
   -0.3786    1.2710    0.5593 C   0  0  0  0  0  0  0  0  0  0  0  0
   -1.5514   -0.7601    0.0343 N   0  0  0  0  0  0  0  0  0  0  0  0
   -2.6471   -0.2474   -0.6657 C   0  0  0  0  0  0  0  0  0  0  0  0
   -3.6906   -1.2000   -1.2069 C   0  0  0  0  0  0  0  0  0  0  0  0
   -2.8630    0.9525   -0.8993 O   0  0  0  0  0  0  0  0  0  0  0  0
    2.4406   -1.2337    3.6451 H   0  0  0  0  0  0  0  0  0  0  0  0
    3.6480   -0.6217    2.3999 H   0  0  0  0  0  0  0  0  0  0  0  0
    2.6294   -2.0620    2.0809 H   0  0  0  0  0  0  0  0  0  0  0  0
    1.8251    0.7932    1.9191 H   0  0  0  0  0  0  0  0  0  0  0  0
   -1.1068    1.8976    0.0691 H   0  0  0  0  0  0  0  0  0  0  0  0
    0.4501    1.8111    1.0080 H   0  0  0  0  0  0  0  0  0  0  0  0
   -1.5049   -1.8228    0.1546 H   0  0  0  0  0  0  0  0  0  0  0  0
   -3.9058   -0.8398   -2.2418 H   0  0  0  0  0  0  0  0  0  0  0  0
   -4.5864   -1.1680   -0.5845 H   0  0  0  0  0  0  0  0  0  0  0  0
   -3.2028   -2.1869   -1.2754 H   0  0  0  0  0  0  0  0  0  0  0  0
  1  2  1  0
  1 11  1  0
  1 12  1  0
  1 13  1  0
  2  3  1  0
  2 14  1  0
  3  4  2  0
  3  5  1  0
  5  6  2  3
  5  7  1  0
  6 15  1  0
  6 16  1  0
  7  8  1  0
  7 17  1  0
  8  9  1  0
  8 10  2  0
  9 18  1  0
  9 19  1  0
  9 20  1  0
M  END

> <RosettaParamsInstructions>
M  ROOT 7
M  POLY_N_BB 7
M  POLY_CA_BB 5
M  POLY_C_BB 3
M  POLY_O_BB 4
M  POLY_IGNORE 1 10 9 14 11 12 13 18 19 20
M  POLY_UPPER 2
M  POLY_LOWER 8
M  POLY_CHG 0
M  POLY_PROPERTIES PROTEIN POLYMER ALPHA_AA ALIPHATIC
M  END

$$$$
DHA_new
     RDKit          3D

 20 19  0  0  0  0  0  0  0  0999 V2000
    2.6415   -1.0810    2.5647 C   0  0  0  0  0  0  0  0  0  0  0  0
    1.6511   -0.2124    1.8952 N   0  0  0  0  0  0  0  0  0  0  0  0
    0.5569   -0.8386    1.2895 C   0  0  0  0  0  0  0  0  0  0  0  0
    0.4650   -2.1079    1.3415 O   0  0  0  0  0  0  0  0  0  0  0  0
   -0.4777   -0.0560    0.6006 C   0  0  0  0  0  0  0  0  0  0  0  0
   -0.3736    1.2497    0.5529 C   0  0  0  0  0  0  0  0  0  0  0  0
   -1.5312   -0.8001    0.0294 N   0  0  0  0  0  0  0  0  0  0  0  0
   -2.5987   -0.2392   -0.6605 C   0  0  0  0  0  0  0  0  0  0  0  0
   -3.6598   -1.1740   -1.2200 C   0  0  0  0  0  0  0  0  0  0  0  0
   -2.7983    0.9776   -0.8834 O   0  0  0  0  0  0  0  0  0  0  0  0
    2.3100   -1.2320    3.6116 H   0  0  0  0  0  0  0  0  0  0  0  0
    3.6035   -0.5475    2.4895 H   0  0  0  0  0  0  0  0  0  0  0  0
    2.6618   -2.0420    2.0207 H   0  0  0  0  0  0  0  0  0  0  0  0
    1.8001    0.8189    1.8980 H   0  0  0  0  0  0  0  0  0  0  0  0
    0.4514    1.7773    1.0049 H   0  0  0  0  0  0  0  0  0  0  0  0
   -1.0861    1.8998    0.0691 H   0  0  0  0  0  0  0  0  0  0  0  0
   -1.4987   -1.8621    0.1388 H   0  0  0  0  0  0  0  0  0  0  0  0
   -3.1974   -2.1669   -1.3440 H   0  0  0  0  0  0  0  0  0  0  0  0
   -4.4907   -1.2709   -0.5051 H   0  0  0  0  0  0  0  0  0  0  0  0
   -4.0357   -0.7451   -2.1524 H   0  0  0  0  0  0  0  0  0  0  0  0
  1  2  1  0
  1 11  1  0
  1 12  1  0
  1 13  1  0
  2  3  1  0
  2 14  1  0
  3  4  2  0
  3  5  1  0
  5  6  2  3
  5  7  1  0
  6 15  1  0
  6 16  1  0
  7  8  1  0
  7 17  1  0
  8  9  1  0
  8 10  2  0
  9 18  1  0
  9 19  1  0
  9 20  1  0
M  END

> <RosettaParamsInstructions>
M  ROOT 7
M  POLY_N_BB 7
M  POLY_CA_BB 5
M  POLY_C_BB 3
M  POLY_O_BB 4
M  POLY_IGNORE 1 10 9 14 11 12 13 18 19 20
M  POLY_UPPER 2
M  POLY_LOWER 8
M  POLY_CHG 0
M  POLY_PROPERTIES PROTEIN POLYMER ALPHA_AA ALIPHATIC
M  END

$$$$
DHA_new
     RDKit          3D

 20 19  0  0  0  0  0  0  0  0999 V2000
    2.7127   -1.0811    2.5390 C   0  0  0  0  0  0  0  0  0  0  0  0
    1.6795   -0.2340    1.9106 N   0  0  0  0  0  0  0  0  0  0  0  0
    0.5836   -0.8022    1.2664 C   0  0  0  0  0  0  0  0  0  0  0  0
    0.5149   -2.0713    1.2447 O   0  0  0  0  0  0  0  0  0  0  0  0
   -0.4898   -0.0439    0.6154 C   0  0  0  0  0  0  0  0  0  0  0  0
   -0.4375    1.2586    0.6267 C   0  0  0  0  0  0  0  0  0  0  0  0
   -1.5264   -0.7923    0.0092 N   0  0  0  0  0  0  0  0  0  0  0  0
   -2.6335   -0.2724   -0.6582 C   0  0  0  0  0  0  0  0  0  0  0  0
   -3.6708   -1.1745   -1.2624 C   0  0  0  0  0  0  0  0  0  0  0  0
   -2.8502    0.9449   -0.8059 O   0  0  0  0  0  0  0  0  0  0  0  0
    3.1277   -0.5508    3.3964 H   0  0  0  0  0  0  0  0  0  0  0  0
    3.4785   -1.2412    1.7787 H   0  0  0  0  0  0  0  0  0  0  0  0
    2.2087   -2.0034    2.8911 H   0  0  0  0  0  0  0  0  0  0  0  0
    1.8218    0.7889    1.9799 H   0  0  0  0  0  0  0  0  0  0  0  0
   -1.1824    1.9031    0.1731 H   0  0  0  0  0  0  0  0  0  0  0  0
    0.4165    1.7437    1.1281 H   0  0  0  0  0  0  0  0  0  0  0  0
   -1.4672   -1.8683    0.0609 H   0  0  0  0  0  0  0  0  0  0  0  0
   -3.4726   -2.2272   -1.0040 H   0  0  0  0  0  0  0  0  0  0  0  0
   -4.6530   -0.9084   -0.8051 H   0  0  0  0  0  0  0  0  0  0  0  0
   -3.7668   -1.0204   -2.3437 H   0  0  0  0  0  0  0  0  0  0  0  0
  1  2  1  0
  1 11  1  0
  1 12  1  0
  1 13  1  0
  2  3  1  0
  2 14  1  0
  3  4  2  0
  3  5  1  0
  5  6  2  3
  5  7  1  0
  6 15  1  0
  6 16  1  0
  7  8  1  0
  7 17  1  0
  8  9  1  0
  8 10  2  0
  9 18  1  0
  9 19  1  0
  9 20  1  0
M  END

> <RosettaParamsInstructions>
M  ROOT 7
M  POLY_N_BB 7
M  POLY_CA_BB 5
M  POLY_C_BB 3
M  POLY_O_BB 4
M  POLY_IGNORE 1 10 9 14 11 12 13 18 19 20
M  POLY_UPPER 2
M  POLY_LOWER 8
M  POLY_CHG 0
M  POLY_PROPERTIES PROTEIN POLYMER ALPHA_AA ALIPHATIC
M  END

$$$$
DHA_new
     RDKit          3D

 20 19  0  0  0  0  0  0  0  0999 V2000
    2.6851   -1.0633    2.4797 C   0  0  0  0  0  0  0  0  0  0  0  0
    1.6799   -0.2122    1.8508 N   0  0  0  0  0  0  0  0  0  0  0  0
    0.5698   -0.8174    1.2649 C   0  0  0  0  0  0  0  0  0  0  0  0
    0.4430   -2.0972    1.2832 O   0  0  0  0  0  0  0  0  0  0  0  0
   -0.4695   -0.0376    0.6217 C   0  0  0  0  0  0  0  0  0  0  0  0
   -0.3688    1.2600    0.5874 C   0  0  0  0  0  0  0  0  0  0  0  0
   -1.5571   -0.7534    0.0562 N   0  0  0  0  0  0  0  0  0  0  0  0
   -2.6650   -0.2369   -0.6074 C   0  0  0  0  0  0  0  0  0  0  0  0
   -3.7289   -1.1555   -1.1451 C   0  0  0  0  0  0  0  0  0  0  0  0
   -2.8455    0.9720   -0.7947 O   0  0  0  0  0  0  0  0  0  0  0  0
    2.3127   -1.4809    3.4522 H   0  0  0  0  0  0  0  0  0  0  0  0
    2.8705   -1.8906    1.7707 H   0  0  0  0  0  0  0  0  0  0  0  0
    3.6385   -0.5300    2.6500 H   0  0  0  0  0  0  0  0  0  0  0  0
    1.8528    0.7865    1.8785 H   0  0  0  0  0  0  0  0  0  0  0  0
    0.4895    1.7791    1.0368 H   0  0  0  0  0  0  0  0  0  0  0  0
   -1.1136    1.9003    0.1207 H   0  0  0  0  0  0  0  0  0  0  0  0
   -1.5523   -1.8344    0.1350 H   0  0  0  0  0  0  0  0  0  0  0  0
   -4.4886   -1.3946   -0.3929 H   0  0  0  0  0  0  0  0  0  0  0  0
   -4.1339   -0.7215   -2.0794 H   0  0  0  0  0  0  0  0  0  0  0  0
   -3.2253   -2.1247   -1.4274 H   0  0  0  0  0  0  0  0  0  0  0  0
  1  2  1  0
  1 11  1  0
  1 12  1  0
  1 13  1  0
  2  3  1  0
  2 14  1  0
  3  4  2  0
  3  5  1  0
  5  6  2  3
  5  7  1  0
  6 15  1  0
  6 16  1  0
  7  8  1  0
  7 17  1  0
  8  9  1  0
  8 10  2  0
  9 18  1  0
  9 19  1  0
  9 20  1  0
M  END

> <RosettaParamsInstructions>
M  ROOT 7
M  POLY_N_BB 7
M  POLY_CA_BB 5
M  POLY_C_BB 3
M  POLY_O_BB 4
M  POLY_IGNORE 1 10 9 14 11 12 13 18 19 20
M  POLY_UPPER 2
M  POLY_LOWER 8
M  POLY_CHG 0
M  POLY_PROPERTIES PROTEIN POLYMER ALPHA_AA ALIPHATIC
M  END

$$$$
DHA_new
     RDKit          3D

 20 19  0  0  0  0  0  0  0  0999 V2000
    2.6185   -1.0907    2.6512 C   0  0  0  0  0  0  0  0  0  0  0  0
    1.6941   -0.2433    1.8848 N   0  0  0  0  0  0  0  0  0  0  0  0
    0.5623   -0.8192    1.2776 C   0  0  0  0  0  0  0  0  0  0  0  0
    0.3924   -2.0504    1.4173 O   0  0  0  0  0  0  0  0  0  0  0  0
   -0.4174   -0.0549    0.4972 C   0  0  0  0  0  0  0  0  0  0  0  0
   -0.2906    1.2374    0.3071 C   0  0  0  0  0  0  0  0  0  0  0  0
   -1.5207   -0.7582    0.0059 N   0  0  0  0  0  0  0  0  0  0  0  0
   -2.5890   -0.2386   -0.7187 C   0  0  0  0  0  0  0  0  0  0  0  0
   -3.7335   -1.1670   -1.1194 C   0  0  0  0  0  0  0  0  0  0  0  0
   -2.7070    0.9295   -1.0723 O   0  0  0  0  0  0  0  0  0  0  0  0
    2.4052   -2.1316    2.4225 H   0  0  0  0  0  0  0  0  0  0  0  0
    3.6560   -0.7713    2.4622 H   0  0  0  0  0  0  0  0  0  0  0  0
    2.3943   -0.8949    3.7289 H   0  0  0  0  0  0  0  0  0  0  0  0
    1.8671    0.7740    1.7944 H   0  0  0  0  0  0  0  0  0  0  0  0
   -0.9386    1.8749   -0.2390 H   0  0  0  0  0  0  0  0  0  0  0  0
    0.5819    1.7356    0.7645 H   0  0  0  0  0  0  0  0  0  0  0  0
   -1.5784   -1.8169    0.1905 H   0  0  0  0  0  0  0  0  0  0  0  0
   -3.4074   -1.8663   -1.8889 H   0  0  0  0  0  0  0  0  0  0  0  0
   -3.9861   -1.7225   -0.1868 H   0  0  0  0  0  0  0  0  0  0  0  0
   -4.6094   -0.5779   -1.4381 H   0  0  0  0  0  0  0  0  0  0  0  0
  1  2  1  0
  1 11  1  0
  1 12  1  0
  1 13  1  0
  2  3  1  0
  2 14  1  0
  3  4  2  0
  3  5  1  0
  5  6  2  3
  5  7  1  0
  6 15  1  0
  6 16  1  0
  7  8  1  0
  7 17  1  0
  8  9  1  0
  8 10  2  0
  9 18  1  0
  9 19  1  0
  9 20  1  0
M  END

> <RosettaParamsInstructions>
M  ROOT 7
M  POLY_N_BB 7
M  POLY_CA_BB 5
M  POLY_C_BB 3
M  POLY_O_BB 4
M  POLY_IGNORE 1 10 9 14 11 12 13 18 19 20
M  POLY_UPPER 2
M  POLY_LOWER 8
M  POLY_CHG 0
M  POLY_PROPERTIES PROTEIN POLYMER ALPHA_AA ALIPHATIC
M  END

$$$$
DHA_new
     RDKit          3D

 20 19  0  0  0  0  0  0  0  0999 V2000
    2.6380   -1.0872    2.5596 C   0  0  0  0  0  0  0  0  0  0  0  0
    1.6721   -0.2102    1.8723 N   0  0  0  0  0  0  0  0  0  0  0  0
    0.5563   -0.8142    1.2919 C   0  0  0  0  0  0  0  0  0  0  0  0
    0.4157   -2.0712    1.3746 O   0  0  0  0  0  0  0  0  0  0  0  0
   -0.4540    0.0032    0.5863 C   0  0  0  0  0  0  0  0  0  0  0  0
   -0.3405    1.2919    0.4834 C   0  0  0  0  0  0  0  0  0  0  0  0
   -1.5416   -0.7386    0.0407 N   0  0  0  0  0  0  0  0  0  0  0  0
   -2.6338   -0.2314   -0.6724 C   0  0  0  0  0  0  0  0  0  0  0  0
   -3.6766   -1.2251   -1.1584 C   0  0  0  0  0  0  0  0  0  0  0  0
   -2.8124    0.9835   -0.9385 O   0  0  0  0  0  0  0  0  0  0  0  0
    2.0900   -1.7514    3.2587 H   0  0  0  0  0  0  0  0  0  0  0  0
    3.3690   -0.4928    3.1147 H   0  0  0  0  0  0  0  0  0  0  0  0
    3.1605   -1.7305    1.8328 H   0  0  0  0  0  0  0  0  0  0  0  0
    1.8336    0.8061    1.8337 H   0  0  0  0  0  0  0  0  0  0  0  0
   -1.0739    1.8816   -0.0284 H   0  0  0  0  0  0  0  0  0  0  0  0
    0.5158    1.8017    0.9226 H   0  0  0  0  0  0  0  0  0  0  0  0
   -1.5398   -1.8054    0.1826 H   0  0  0  0  0  0  0  0  0  0  0  0
   -3.4694   -1.5134   -2.2060 H   0  0  0  0  0  0  0  0  0  0  0  0
   -4.6345   -0.6829   -1.1510 H   0  0  0  0  0  0  0  0  0  0  0  0
   -3.6811   -2.0660   -0.4583 H   0  0  0  0  0  0  0  0  0  0  0  0
  1  2  1  0
  1 11  1  0
  1 12  1  0
  1 13  1  0
  2  3  1  0
  2 14  1  0
  3  4  2  0
  3  5  1  0
  5  6  2  3
  5  7  1  0
  6 15  1  0
  6 16  1  0
  7  8  1  0
  7 17  1  0
  8  9  1  0
  8 10  2  0
  9 18  1  0
  9 19  1  0
  9 20  1  0
M  END

> <RosettaParamsInstructions>
M  ROOT 7
M  POLY_N_BB 7
M  POLY_CA_BB 5
M  POLY_C_BB 3
M  POLY_O_BB 4
M  POLY_IGNORE 1 10 9 14 11 12 13 18 19 20
M  POLY_UPPER 2
M  POLY_LOWER 8
M  POLY_CHG 0
M  POLY_PROPERTIES PROTEIN POLYMER ALPHA_AA ALIPHATIC
M  END

$$$$
DHA_new
     RDKit          3D

 20 19  0  0  0  0  0  0  0  0999 V2000
    2.6810   -1.0607    2.5812 C   0  0  0  0  0  0  0  0  0  0  0  0
    1.7035   -0.2229    1.8724 N   0  0  0  0  0  0  0  0  0  0  0  0
    0.5656   -0.8254    1.3031 C   0  0  0  0  0  0  0  0  0  0  0  0
    0.3758   -2.0836    1.3958 O   0  0  0  0  0  0  0  0  0  0  0  0
   -0.4598   -0.0727    0.5800 C   0  0  0  0  0  0  0  0  0  0  0  0
   -0.3161    1.2201    0.4547 C   0  0  0  0  0  0  0  0  0  0  0  0
   -1.5518   -0.7732    0.0535 N   0  0  0  0  0  0  0  0  0  0  0  0
   -2.6365   -0.2472   -0.6676 C   0  0  0  0  0  0  0  0  0  0  0  0
   -3.7421   -1.1714   -1.1659 C   0  0  0  0  0  0  0  0  0  0  0  0
   -2.8022    0.9544   -0.9595 O   0  0  0  0  0  0  0  0  0  0  0  0
    2.5020   -2.1284    2.3419 H   0  0  0  0  0  0  0  0  0  0  0  0
    3.6988   -0.7875    2.2629 H   0  0  0  0  0  0  0  0  0  0  0  0
    2.5212   -0.9334    3.6699 H   0  0  0  0  0  0  0  0  0  0  0  0
    1.8870    0.7940    1.8151 H   0  0  0  0  0  0  0  0  0  0  0  0
   -1.0420    1.8226   -0.0684 H   0  0  0  0  0  0  0  0  0  0  0  0
    0.5322    1.7756    0.8619 H   0  0  0  0  0  0  0  0  0  0  0  0
   -1.5668   -1.8245    0.2151 H   0  0  0  0  0  0  0  0  0  0  0  0
   -4.0547   -0.8193   -2.1693 H   0  0  0  0  0  0  0  0  0  0  0  0
   -4.5596   -1.0567   -0.4269 H   0  0  0  0  0  0  0  0  0  0  0  0
   -3.3419   -2.2123   -1.2091 H   0  0  0  0  0  0  0  0  0  0  0  0
  1  2  1  0
  1 11  1  0
  1 12  1  0
  1 13  1  0
  2  3  1  0
  2 14  1  0
  3  4  2  0
  3  5  1  0
  5  6  2  3
  5  7  1  0
  6 15  1  0
  6 16  1  0
  7  8  1  0
  7 17  1  0
  8  9  1  0
  8 10  2  0
  9 18  1  0
  9 19  1  0
  9 20  1  0
M  END

> <RosettaParamsInstructions>
M  ROOT 7
M  POLY_N_BB 7
M  POLY_CA_BB 5
M  POLY_C_BB 3
M  POLY_O_BB 4
M  POLY_IGNORE 1 10 9 14 11 12 13 18 19 20
M  POLY_UPPER 2
M  POLY_LOWER 8
M  POLY_CHG 0
M  POLY_PROPERTIES PROTEIN POLYMER ALPHA_AA ALIPHATIC
M  END

$$$$
DHA_new
     RDKit          3D

 20 19  0  0  0  0  0  0  0  0999 V2000
    2.6405   -1.0503    2.5455 C   0  0  0  0  0  0  0  0  0  0  0  0
    1.6693   -0.2240    1.8425 N   0  0  0  0  0  0  0  0  0  0  0  0
    0.5442   -0.8079    1.2842 C   0  0  0  0  0  0  0  0  0  0  0  0
    0.4067   -2.0753    1.4147 O   0  0  0  0  0  0  0  0  0  0  0  0
   -0.4733   -0.0324    0.5628 C   0  0  0  0  0  0  0  0  0  0  0  0
   -0.3057    1.2537    0.4467 C   0  0  0  0  0  0  0  0  0  0  0  0
   -1.5624   -0.7526    0.0480 N   0  0  0  0  0  0  0  0  0  0  0  0
   -2.6245   -0.2376   -0.6562 C   0  0  0  0  0  0  0  0  0  0  0  0
   -3.7126   -1.1706   -1.1350 C   0  0  0  0  0  0  0  0  0  0  0  0
   -2.7815    0.9472   -0.9446 O   0  0  0  0  0  0  0  0  0  0  0  0
    2.9762   -1.8958    1.8949 H   0  0  0  0  0  0  0  0  0  0  0  0
    3.5029   -0.4909    2.9157 H   0  0  0  0  0  0  0  0  0  0  0  0
    2.1076   -1.4980    3.4083 H   0  0  0  0  0  0  0  0  0  0  0  0
    1.8779    0.7775    1.7976 H   0  0  0  0  0  0  0  0  0  0  0  0
    0.5584    1.7633    0.8654 H   0  0  0  0  0  0  0  0  0  0  0  0
   -1.0306    1.8511   -0.0747 H   0  0  0  0  0  0  0  0  0  0  0  0
   -1.5700   -1.8120    0.2196 H   0  0  0  0  0  0  0  0  0  0  0  0
   -3.2418   -2.1586   -1.3044 H   0  0  0  0  0  0  0  0  0  0  0  0
   -4.1547   -0.7982   -2.0817 H   0  0  0  0  0  0  0  0  0  0  0  0
   -4.4329   -1.2408   -0.3086 H   0  0  0  0  0  0  0  0  0  0  0  0
  1  2  1  0
  1 11  1  0
  1 12  1  0
  1 13  1  0
  2  3  1  0
  2 14  1  0
  3  4  2  0
  3  5  1  0
  5  6  2  3
  5  7  1  0
  6 15  1  0
  6 16  1  0
  7  8  1  0
  7 17  1  0
  8  9  1  0
  8 10  2  0
  9 18  1  0
  9 19  1  0
  9 20  1  0
M  END

> <RosettaParamsInstructions>
M  ROOT 7
M  POLY_N_BB 7
M  POLY_CA_BB 5
M  POLY_C_BB 3
M  POLY_O_BB 4
M  POLY_IGNORE 1 10 9 14 11 12 13 18 19 20
M  POLY_UPPER 2
M  POLY_LOWER 8
M  POLY_CHG 0
M  POLY_PROPERTIES PROTEIN POLYMER ALPHA_AA ALIPHATIC
M  END

$$$$
DHA_new
     RDKit          3D

 20 19  0  0  0  0  0  0  0  0999 V2000
    2.6634   -1.0798    2.5710 C   0  0  0  0  0  0  0  0  0  0  0  0
    1.6974   -0.2110    1.9048 N   0  0  0  0  0  0  0  0  0  0  0  0
    0.5698   -0.7891    1.2972 C   0  0  0  0  0  0  0  0  0  0  0  0
    0.4316   -2.0535    1.3501 O   0  0  0  0  0  0  0  0  0  0  0  0
   -0.4870   -0.0431    0.5902 C   0  0  0  0  0  0  0  0  0  0  0  0
   -0.3909    1.2527    0.5089 C   0  0  0  0  0  0  0  0  0  0  0  0
   -1.5602   -0.7501    0.0285 N   0  0  0  0  0  0  0  0  0  0  0  0
   -2.6383   -0.2405   -0.6659 C   0  0  0  0  0  0  0  0  0  0  0  0
   -3.6865   -1.1983   -1.1859 C   0  0  0  0  0  0  0  0  0  0  0  0
   -2.8299    0.9589   -0.9077 O   0  0  0  0  0  0  0  0  0  0  0  0
    3.4984   -0.4974    2.9693 H   0  0  0  0  0  0  0  0  0  0  0  0
    3.0572   -1.8074    1.8250 H   0  0  0  0  0  0  0  0  0  0  0  0
    2.1163   -1.6326    3.3693 H   0  0  0  0  0  0  0  0  0  0  0  0
    1.8829    0.8140    1.9056 H   0  0  0  0  0  0  0  0  0  0  0  0
   -1.1029    1.8727    0.0200 H   0  0  0  0  0  0  0  0  0  0  0  0
    0.4511    1.7602    0.9545 H   0  0  0  0  0  0  0  0  0  0  0  0
   -1.5243   -1.8127    0.1633 H   0  0  0  0  0  0  0  0  0  0  0  0
   -3.2457   -2.2301   -1.2341 H   0  0  0  0  0  0  0  0  0  0  0  0
   -3.9582   -0.8378   -2.2027 H   0  0  0  0  0  0  0  0  0  0  0  0
   -4.5507   -1.1273   -0.5205 H   0  0  0  0  0  0  0  0  0  0  0  0
  1  2  1  0
  1 11  1  0
  1 12  1  0
  1 13  1  0
  2  3  1  0
  2 14  1  0
  3  4  2  0
  3  5  1  0
  5  6  2  3
  5  7  1  0
  6 15  1  0
  6 16  1  0
  7  8  1  0
  7 17  1  0
  8  9  1  0
  8 10  2  0
  9 18  1  0
  9 19  1  0
  9 20  1  0
M  END

> <RosettaParamsInstructions>
M  ROOT 7
M  POLY_N_BB 7
M  POLY_CA_BB 5
M  POLY_C_BB 3
M  POLY_O_BB 4
M  POLY_IGNORE 1 10 9 14 11 12 13 18 19 20
M  POLY_UPPER 2
M  POLY_LOWER 8
M  POLY_CHG 0
M  POLY_PROPERTIES PROTEIN POLYMER ALPHA_AA ALIPHATIC
M  END

$$$$
DHA_new
     RDKit          3D

 20 19  0  0  0  0  0  0  0  0999 V2000
    2.6207   -1.0108    2.6648 C   0  0  0  0  0  0  0  0  0  0  0  0
    1.6959   -0.2436    1.8330 N   0  0  0  0  0  0  0  0  0  0  0  0
    0.5313   -0.8166    1.3564 C   0  0  0  0  0  0  0  0  0  0  0  0
    0.2784   -2.0242    1.6548 O   0  0  0  0  0  0  0  0  0  0  0  0
   -0.4476   -0.0917    0.5084 C   0  0  0  0  0  0  0  0  0  0  0  0
   -0.2006    1.1486    0.1945 C   0  0  0  0  0  0  0  0  0  0  0  0
   -1.5954   -0.7959    0.0904 N   0  0  0  0  0  0  0  0  0  0  0  0
   -2.6126   -0.2671   -0.7075 C   0  0  0  0  0  0  0  0  0  0  0  0
   -3.8061   -1.1323   -1.0927 C   0  0  0  0  0  0  0  0  0  0  0  0
   -2.6135    0.8893   -1.1370 O   0  0  0  0  0  0  0  0  0  0  0  0
    2.6585   -2.0735    2.3442 H   0  0  0  0  0  0  0  0  0  0  0  0
    2.3322   -1.0022    3.7289 H   0  0  0  0  0  0  0  0  0  0  0  0
    3.6537   -0.6184    2.5804 H   0  0  0  0  0  0  0  0  0  0  0  0
    1.9749    0.7240    1.6392 H   0  0  0  0  0  0  0  0  0  0  0  0
    0.7166    1.6532    0.5500 H   0  0  0  0  0  0  0  0  0  0  0  0
   -0.8409    1.7590   -0.4108 H   0  0  0  0  0  0  0  0  0  0  0  0
   -1.6854   -1.8221    0.4178 H   0  0  0  0  0  0  0  0  0  0  0  0
   -4.2666   -0.7493   -2.0204 H   0  0  0  0  0  0  0  0  0  0  0  0
   -3.4883   -2.1684   -1.2222 H   0  0  0  0  0  0  0  0  0  0  0  0
   -4.5116   -1.0101   -0.2313 H   0  0  0  0  0  0  0  0  0  0  0  0
  1  2  1  0
  1 11  1  0
  1 12  1  0
  1 13  1  0
  2  3  1  0
  2 14  1  0
  3  4  2  0
  3  5  1  0
  5  6  2  3
  5  7  1  0
  6 15  1  0
  6 16  1  0
  7  8  1  0
  7 17  1  0
  8  9  1  0
  8 10  2  0
  9 18  1  0
  9 19  1  0
  9 20  1  0
M  END

> <RosettaParamsInstructions>
M  ROOT 7
M  POLY_N_BB 7
M  POLY_CA_BB 5
M  POLY_C_BB 3
M  POLY_O_BB 4
M  POLY_IGNORE 1 10 9 14 11 12 13 18 19 20
M  POLY_UPPER 2
M  POLY_LOWER 8
M  POLY_CHG 0
M  POLY_PROPERTIES PROTEIN POLYMER ALPHA_AA ALIPHATIC
M  END

$$$$
DHA_new
     RDKit          3D

 20 19  0  0  0  0  0  0  0  0999 V2000
    2.5502   -0.4806    2.5529 C   0  0  0  0  0  0  0  0  0  0  0  0
    1.3714   -0.7281    1.9105 N   0  0  0  0  0  0  0  0  0  0  0  0
    0.1883   -0.9766    1.2659 C   0  0  0  0  0  0  0  0  0  0  0  0
   -0.4450   -2.0717    1.3957 O   0  0  0  0  0  0  0  0  0  0  0  0
   -0.3934    0.0484    0.3927 C   0  0  0  0  0  0  0  0  0  0  0  0
    0.3023    1.1980    0.2801 C   0  0  0  0  0  0  0  0  0  0  0  0
   -1.6179   -0.1132   -0.2542 N   0  0  0  0  0  0  0  0  0  0  0  0
   -2.5096   -1.1592   -0.3134 C   0  0  0  0  0  0  0  0  0  0  0  0
   -3.7892   -1.0225   -1.1204 C   0  0  0  0  0  0  0  0  0  0  0  0
   -2.4167   -2.2859    0.2384 O   0  0  0  0  0  0  0  0  0  0  0  0
    2.4943   -0.5637    3.6865 H   0  0  0  0  0  0  0  0  0  0  0  0
    3.3923   -1.1645    2.2154 H   0  0  0  0  0  0  0  0  0  0  0  0
    2.9290    0.5956    2.3877 H   0  0  0  0  0  0  0  0  0  0  0  0
    1.3490   -1.9820    2.4728 H   0  0  0  0  0  0  0  0  0  0  0  0
    1.2328    1.3558    0.8029 H   0  0  0  0  0  0  0  0  0  0  0  0
   -0.0434    2.0098   -0.3337 H   0  0  0  0  0  0  0  0  0  0  0  0
   -1.9250    0.7735   -0.8180 H   0  0  0  0  0  0  0  0  0  0  0  0
   -3.6128   -0.3793   -1.9982 H   0  0  0  0  0  0  0  0  0  0  0  0
   -4.0371   -2.0286   -1.5092 H   0  0  0  0  0  0  0  0  0  0  0  0
   -4.6259   -0.6773   -0.5134 H   0  0  0  0  0  0  0  0  0  0  0  0
  1  2  1  0
  1 11  1  0
  1 12  1  0
  1 13  1  0
  2  3  1  0
  2 14  1  0
  3  4  2  0
  3  5  1  0
  5  6  2  3
  5  7  1  0
  6 15  1  0
  6 16  1  0
  7  8  1  0
  7 17  1  0
  8  9  1  0
  8 10  2  0
  9 18  1  0
  9 19  1  0
  9 20  1  0
M  END

> <RosettaParamsInstructions>
M  ROOT 7
M  POLY_N_BB 7
M  POLY_CA_BB 5
M  POLY_C_BB 3
M  POLY_O_BB 4
M  POLY_IGNORE 1 10 9 14 11 12 13 18 19 20
M  POLY_UPPER 2
M  POLY_LOWER 8
M  POLY_CHG 0
M  POLY_PROPERTIES PROTEIN POLYMER ALPHA_AA ALIPHATIC
M  END

$$$$
DHA_new
     RDKit          3D

 20 19  0  0  0  0  0  0  0  0999 V2000
    2.6662   -1.0828    2.5686 C   0  0  0  0  0  0  0  0  0  0  0  0
    1.7147   -0.2068    1.8658 N   0  0  0  0  0  0  0  0  0  0  0  0
    0.5837   -0.7875    1.3025 C   0  0  0  0  0  0  0  0  0  0  0  0
    0.3885   -2.0465    1.3996 O   0  0  0  0  0  0  0  0  0  0  0  0
   -0.4473   -0.0370    0.5743 C   0  0  0  0  0  0  0  0  0  0  0  0
   -0.2999    1.2548    0.4438 C   0  0  0  0  0  0  0  0  0  0  0  0
   -1.5732   -0.7348    0.0335 N   0  0  0  0  0  0  0  0  0  0  0  0
   -2.6509   -0.2210   -0.6823 C   0  0  0  0  0  0  0  0  0  0  0  0
   -3.7135   -1.1867   -1.1412 C   0  0  0  0  0  0  0  0  0  0  0  0
   -2.7934    0.9815   -0.9671 O   0  0  0  0  0  0  0  0  0  0  0  0
    3.3283   -1.5276    1.8197 H   0  0  0  0  0  0  0  0  0  0  0  0
    3.1992   -0.5269    3.3598 H   0  0  0  0  0  0  0  0  0  0  0  0
    2.0529   -1.8523    3.0784 H   0  0  0  0  0  0  0  0  0  0  0  0
    1.9135    0.8032    1.8127 H   0  0  0  0  0  0  0  0  0  0  0  0
    0.5693    1.7392    0.8704 H   0  0  0  0  0  0  0  0  0  0  0  0
   -1.0294    1.8407   -0.0806 H   0  0  0  0  0  0  0  0  0  0  0  0
   -1.5563   -1.7921    0.2206 H   0  0  0  0  0  0  0  0  0  0  0  0
   -4.5413   -1.1499   -0.4055 H   0  0  0  0  0  0  0  0  0  0  0  0
   -3.3079   -2.2074   -1.1987 H   0  0  0  0  0  0  0  0  0  0  0  0
   -4.1096   -0.9122   -2.1335 H   0  0  0  0  0  0  0  0  0  0  0  0
  1  2  1  0
  1 11  1  0
  1 12  1  0
  1 13  1  0
  2  3  1  0
  2 14  1  0
  3  4  2  0
  3  5  1  0
  5  6  2  3
  5  7  1  0
  6 15  1  0
  6 16  1  0
  7  8  1  0
  7 17  1  0
  8  9  1  0
  8 10  2  0
  9 18  1  0
  9 19  1  0
  9 20  1  0
M  END

> <RosettaParamsInstructions>
M  ROOT 7
M  POLY_N_BB 7
M  POLY_CA_BB 5
M  POLY_C_BB 3
M  POLY_O_BB 4
M  POLY_IGNORE 1 10 9 14 11 12 13 18 19 20
M  POLY_UPPER 2
M  POLY_LOWER 8
M  POLY_CHG 0
M  POLY_PROPERTIES PROTEIN POLYMER ALPHA_AA ALIPHATIC
M  END

$$$$
DHA_new
     RDKit          3D

 20 19  0  0  0  0  0  0  0  0999 V2000
    2.3016   -1.5950    2.4220 C   0  0  0  0  0  0  0  0  0  0  0  0
    1.0907   -1.2197    1.6628 N   0  0  0  0  0  0  0  0  0  0  0  0
    0.8340    0.1086    1.3102 C   0  0  0  0  0  0  0  0  0  0  0  0
    1.6777    0.9998    1.6623 O   0  0  0  0  0  0  0  0  0  0  0  0
   -0.3541    0.5127    0.5598 C   0  0  0  0  0  0  0  0  0  0  0  0
   -0.4943    1.8015    0.2808 C   0  0  0  0  0  0  0  0  0  0  0  0
   -1.3072   -0.4353    0.1530 N   0  0  0  0  0  0  0  0  0  0  0  0
   -2.4877   -0.2476   -0.5599 C   0  0  0  0  0  0  0  0  0  0  0  0
   -3.3485   -1.4417   -0.8753 C   0  0  0  0  0  0  0  0  0  0  0  0
   -2.8881    0.8487   -0.9602 O   0  0  0  0  0  0  0  0  0  0  0  0
    3.0797   -0.8647    2.1933 H   0  0  0  0  0  0  0  0  0  0  0  0
    2.5688   -2.6449    2.1842 H   0  0  0  0  0  0  0  0  0  0  0  0
    2.0272   -1.5345    3.4930 H   0  0  0  0  0  0  0  0  0  0  0  0
    0.4453   -1.9795    1.4055 H   0  0  0  0  0  0  0  0  0  0  0  0
   -1.3338    2.1654   -0.2615 H   0  0  0  0  0  0  0  0  0  0  0  0
    0.2772    2.5049    0.6197 H   0  0  0  0  0  0  0  0  0  0  0  0
   -1.1172   -1.4653    0.4212 H   0  0  0  0  0  0  0  0  0  0  0  0
   -4.1889   -1.5351   -0.1614 H   0  0  0  0  0  0  0  0  0  0  0  0
   -2.7031   -2.3337   -0.8806 H   0  0  0  0  0  0  0  0  0  0  0  0
   -3.6859   -1.2967   -1.9280 H   0  0  0  0  0  0  0  0  0  0  0  0
  1  2  1  0
  1 11  1  0
  1 12  1  0
  1 13  1  0
  2  3  1  0
  2 14  1  0
  3  4  2  0
  3  5  1  0
  5  6  2  3
  5  7  1  0
  6 15  1  0
  6 16  1  0
  7  8  1  0
  7 17  1  0
  8  9  1  0
  8 10  2  0
  9 18  1  0
  9 19  1  0
  9 20  1  0
M  END

> <RosettaParamsInstructions>
M  ROOT 7
M  POLY_N_BB 7
M  POLY_CA_BB 5
M  POLY_C_BB 3
M  POLY_O_BB 4
M  POLY_IGNORE 1 10 9 14 11 12 13 18 19 20
M  POLY_UPPER 2
M  POLY_LOWER 8
M  POLY_CHG 0
M  POLY_PROPERTIES PROTEIN POLYMER ALPHA_AA ALIPHATIC
M  END

$$$$
DHA_new
     RDKit          3D

 20 19  0  0  0  0  0  0  0  0999 V2000
    2.6851   -1.0702    2.6049 C   0  0  0  0  0  0  0  0  0  0  0  0
    1.7109   -0.2642    1.8961 N   0  0  0  0  0  0  0  0  0  0  0  0
    0.5551   -0.7921    1.3015 C   0  0  0  0  0  0  0  0  0  0  0  0
    0.4017   -2.0471    1.4195 O   0  0  0  0  0  0  0  0  0  0  0  0
   -0.4668   -0.0551    0.5758 C   0  0  0  0  0  0  0  0  0  0  0  0
   -0.3419    1.2377    0.4348 C   0  0  0  0  0  0  0  0  0  0  0  0
   -1.5566   -0.7722    0.0511 N   0  0  0  0  0  0  0  0  0  0  0  0
   -2.6368   -0.2598   -0.6724 C   0  0  0  0  0  0  0  0  0  0  0  0
   -3.7399   -1.1533   -1.1750 C   0  0  0  0  0  0  0  0  0  0  0  0
   -2.7459    0.9378   -0.9365 O   0  0  0  0  0  0  0  0  0  0  0  0
    2.3718   -2.1122    2.5201 H   0  0  0  0  0  0  0  0  0  0  0  0
    3.6574   -0.9766    2.0799 H   0  0  0  0  0  0  0  0  0  0  0  0
    2.7427   -0.7163    3.6390 H   0  0  0  0  0  0  0  0  0  0  0  0
    1.9101    0.7468    1.8459 H   0  0  0  0  0  0  0  0  0  0  0  0
    0.5343    1.7224    0.8715 H   0  0  0  0  0  0  0  0  0  0  0  0
   -1.0064    1.9186   -0.0708 H   0  0  0  0  0  0  0  0  0  0  0  0
   -1.5906   -1.8374    0.2077 H   0  0  0  0  0  0  0  0  0  0  0  0
   -3.3918   -1.8326   -1.9551 H   0  0  0  0  0  0  0  0  0  0  0  0
   -4.5660   -0.5484   -1.5687 H   0  0  0  0  0  0  0  0  0  0  0  0
   -4.1329   -1.7781   -0.3286 H   0  0  0  0  0  0  0  0  0  0  0  0
  1  2  1  0
  1 11  1  0
  1 12  1  0
  1 13  1  0
  2  3  1  0
  2 14  1  0
  3  4  2  0
  3  5  1  0
  5  6  2  3
  5  7  1  0
  6 15  1  0
  6 16  1  0
  7  8  1  0
  7 17  1  0
  8  9  1  0
  8 10  2  0
  9 18  1  0
  9 19  1  0
  9 20  1  0
M  END

> <RosettaParamsInstructions>
M  ROOT 7
M  POLY_N_BB 7
M  POLY_CA_BB 5
M  POLY_C_BB 3
M  POLY_O_BB 4
M  POLY_IGNORE 1 10 9 14 11 12 13 18 19 20
M  POLY_UPPER 2
M  POLY_LOWER 8
M  POLY_CHG 0
M  POLY_PROPERTIES PROTEIN POLYMER ALPHA_AA ALIPHATIC
M  END

$$$$
DHA_new
     RDKit          3D

 20 19  0  0  0  0  0  0  0  0999 V2000
    2.6921   -1.0819    2.4809 C   0  0  0  0  0  0  0  0  0  0  0  0
    1.6617   -0.2386    1.8782 N   0  0  0  0  0  0  0  0  0  0  0  0
    0.5748   -0.8353    1.2526 C   0  0  0  0  0  0  0  0  0  0  0  0
    0.4782   -2.0915    1.2051 O   0  0  0  0  0  0  0  0  0  0  0  0
   -0.4963   -0.0250    0.6265 C   0  0  0  0  0  0  0  0  0  0  0  0
   -0.4644    1.2811    0.6362 C   0  0  0  0  0  0  0  0  0  0  0  0
   -1.5500   -0.7325    0.0208 N   0  0  0  0  0  0  0  0  0  0  0  0
   -2.6603   -0.2064   -0.6259 C   0  0  0  0  0  0  0  0  0  0  0  0
   -3.6739   -1.1775   -1.2066 C   0  0  0  0  0  0  0  0  0  0  0  0
   -2.8912    1.0048   -0.7679 O   0  0  0  0  0  0  0  0  0  0  0  0
    3.4585   -0.4742    3.0127 H   0  0  0  0  0  0  0  0  0  0  0  0
    3.2086   -1.6571    1.6764 H   0  0  0  0  0  0  0  0  0  0  0  0
    2.2579   -1.7716    3.2335 H   0  0  0  0  0  0  0  0  0  0  0  0
    1.7835    0.7741    1.9420 H   0  0  0  0  0  0  0  0  0  0  0  0
    0.3897    1.7770    1.1277 H   0  0  0  0  0  0  0  0  0  0  0  0
   -1.2211    1.8821    0.1937 H   0  0  0  0  0  0  0  0  0  0  0  0
   -1.5006   -1.8212    0.0568 H   0  0  0  0  0  0  0  0  0  0  0  0
   -3.6785   -2.0727   -0.5366 H   0  0  0  0  0  0  0  0  0  0  0  0
   -4.6488   -0.6860   -1.2489 H   0  0  0  0  0  0  0  0  0  0  0  0
   -3.3263   -1.4996   -2.2162 H   0  0  0  0  0  0  0  0  0  0  0  0
  1  2  1  0
  1 11  1  0
  1 12  1  0
  1 13  1  0
  2  3  1  0
  2 14  1  0
  3  4  2  0
  3  5  1  0
  5  6  2  3
  5  7  1  0
  6 15  1  0
  6 16  1  0
  7  8  1  0
  7 17  1  0
  8  9  1  0
  8 10  2  0
  9 18  1  0
  9 19  1  0
  9 20  1  0
M  END

> <RosettaParamsInstructions>
M  ROOT 7
M  POLY_N_BB 7
M  POLY_CA_BB 5
M  POLY_C_BB 3
M  POLY_O_BB 4
M  POLY_IGNORE 1 10 9 14 11 12 13 18 19 20
M  POLY_UPPER 2
M  POLY_LOWER 8
M  POLY_CHG 0
M  POLY_PROPERTIES PROTEIN POLYMER ALPHA_AA ALIPHATIC
M  END

$$$$
DHA_new
     RDKit          3D

 20 19  0  0  0  0  0  0  0  0999 V2000
    2.6302   -1.0692    2.6335 C   0  0  0  0  0  0  0  0  0  0  0  0
    1.6678   -0.2528    1.8584 N   0  0  0  0  0  0  0  0  0  0  0  0
    0.5146   -0.8218    1.3049 C   0  0  0  0  0  0  0  0  0  0  0  0
    0.3260   -2.0495    1.4896 O   0  0  0  0  0  0  0  0  0  0  0  0
   -0.4538   -0.0744    0.5430 C   0  0  0  0  0  0  0  0  0  0  0  0
   -0.2781    1.2029    0.3386 C   0  0  0  0  0  0  0  0  0  0  0  0
   -1.5635   -0.7767    0.0478 N   0  0  0  0  0  0  0  0  0  0  0  0
   -2.5913   -0.2143   -0.7050 C   0  0  0  0  0  0  0  0  0  0  0  0
   -3.7024   -1.1717   -1.1392 C   0  0  0  0  0  0  0  0  0  0  0  0
   -2.6919    0.9894   -1.0572 O   0  0  0  0  0  0  0  0  0  0  0  0
    1.9829   -1.8398    3.1390 H   0  0  0  0  0  0  0  0  0  0  0  0
    3.3962   -1.5068    1.9922 H   0  0  0  0  0  0  0  0  0  0  0  0
    3.0832   -0.4108    3.3737 H   0  0  0  0  0  0  0  0  0  0  0  0
    1.8705    0.7518    1.7363 H   0  0  0  0  0  0  0  0  0  0  0  0
   -0.9283    1.8737   -0.2140 H   0  0  0  0  0  0  0  0  0  0  0  0
    0.5997    1.7366    0.7355 H   0  0  0  0  0  0  0  0  0  0  0  0
   -1.6419   -1.8271    0.2555 H   0  0  0  0  0  0  0  0  0  0  0  0
   -3.2888   -1.8068   -1.9223 H   0  0  0  0  0  0  0  0  0  0  0  0
   -3.9522   -1.7724   -0.2235 H   0  0  0  0  0  0  0  0  0  0  0  0
   -4.5855   -0.6127   -1.4459 H   0  0  0  0  0  0  0  0  0  0  0  0
  1  2  1  0
  1 11  1  0
  1 12  1  0
  1 13  1  0
  2  3  1  0
  2 14  1  0
  3  4  2  0
  3  5  1  0
  5  6  2  3
  5  7  1  0
  6 15  1  0
  6 16  1  0
  7  8  1  0
  7 17  1  0
  8  9  1  0
  8 10  2  0
  9 18  1  0
  9 19  1  0
  9 20  1  0
M  END

> <RosettaParamsInstructions>
M  ROOT 7
M  POLY_N_BB 7
M  POLY_CA_BB 5
M  POLY_C_BB 3
M  POLY_O_BB 4
M  POLY_IGNORE 1 10 9 14 11 12 13 18 19 20
M  POLY_UPPER 2
M  POLY_LOWER 8
M  POLY_CHG 0
M  POLY_PROPERTIES PROTEIN POLYMER ALPHA_AA ALIPHATIC
M  END

$$$$
DHA_new
     RDKit          3D

 20 19  0  0  0  0  0  0  0  0999 V2000
    2.6595   -1.0580    2.5496 C   0  0  0  0  0  0  0  0  0  0  0  0
    1.6951   -0.2434    1.7964 N   0  0  0  0  0  0  0  0  0  0  0  0
    0.5366   -0.8413    1.2954 C   0  0  0  0  0  0  0  0  0  0  0  0
    0.3324   -2.0829    1.4981 O   0  0  0  0  0  0  0  0  0  0  0  0
   -0.4541   -0.0520    0.5338 C   0  0  0  0  0  0  0  0  0  0  0  0
   -0.2326    1.2335    0.3296 C   0  0  0  0  0  0  0  0  0  0  0  0
   -1.5780   -0.7628    0.0813 N   0  0  0  0  0  0  0  0  0  0  0  0
   -2.6440   -0.2429   -0.6538 C   0  0  0  0  0  0  0  0  0  0  0  0
   -3.7774   -1.1493   -1.0616 C   0  0  0  0  0  0  0  0  0  0  0  0
   -2.7268    0.9523   -1.0067 O   0  0  0  0  0  0  0  0  0  0  0  0
    2.9196   -1.9629    1.9733 H   0  0  0  0  0  0  0  0  0  0  0  0
    2.1676   -1.3749    3.5109 H   0  0  0  0  0  0  0  0  0  0  0  0
    3.5477   -0.4908    2.8374 H   0  0  0  0  0  0  0  0  0  0  0  0
    1.9255    0.7425    1.6740 H   0  0  0  0  0  0  0  0  0  0  0  0
    0.6482    1.7433    0.6964 H   0  0  0  0  0  0  0  0  0  0  0  0
   -0.9119    1.8668   -0.2162 H   0  0  0  0  0  0  0  0  0  0  0  0
   -1.6462   -1.8058    0.3100 H   0  0  0  0  0  0  0  0  0  0  0  0
   -3.4120   -2.2008   -1.0278 H   0  0  0  0  0  0  0  0  0  0  0  0
   -4.5859   -1.0714   -0.3074 H   0  0  0  0  0  0  0  0  0  0  0  0
   -4.0701   -0.8515   -2.0718 H   0  0  0  0  0  0  0  0  0  0  0  0
  1  2  1  0
  1 11  1  0
  1 12  1  0
  1 13  1  0
  2  3  1  0
  2 14  1  0
  3  4  2  0
  3  5  1  0
  5  6  2  3
  5  7  1  0
  6 15  1  0
  6 16  1  0
  7  8  1  0
  7 17  1  0
  8  9  1  0
  8 10  2  0
  9 18  1  0
  9 19  1  0
  9 20  1  0
M  END

> <RosettaParamsInstructions>
M  ROOT 7
M  POLY_N_BB 7
M  POLY_CA_BB 5
M  POLY_C_BB 3
M  POLY_O_BB 4
M  POLY_IGNORE 1 10 9 14 11 12 13 18 19 20
M  POLY_UPPER 2
M  POLY_LOWER 8
M  POLY_CHG 0
M  POLY_PROPERTIES PROTEIN POLYMER ALPHA_AA ALIPHATIC
M  END

$$$$
DHA_new
     RDKit          3D

 20 19  0  0  0  0  0  0  0  0999 V2000
    2.6599   -1.0587    2.5781 C   0  0  0  0  0  0  0  0  0  0  0  0
    1.6744   -0.2564    1.8621 N   0  0  0  0  0  0  0  0  0  0  0  0
    0.5403   -0.8442    1.2965 C   0  0  0  0  0  0  0  0  0  0  0  0
    0.3862   -2.1039    1.4212 O   0  0  0  0  0  0  0  0  0  0  0  0
   -0.4677   -0.0496    0.5686 C   0  0  0  0  0  0  0  0  0  0  0  0
   -0.3022    1.2439    0.4447 C   0  0  0  0  0  0  0  0  0  0  0  0
   -1.5674   -0.7580    0.0437 N   0  0  0  0  0  0  0  0  0  0  0  0
   -2.6453   -0.2439   -0.6773 C   0  0  0  0  0  0  0  0  0  0  0  0
   -3.7148   -1.1560   -1.1496 C   0  0  0  0  0  0  0  0  0  0  0  0
   -2.7720    0.9559   -0.9568 O   0  0  0  0  0  0  0  0  0  0  0  0
    2.5182   -0.9547    3.6712 H   0  0  0  0  0  0  0  0  0  0  0  0
    2.5096   -2.1229    2.3077 H   0  0  0  0  0  0  0  0  0  0  0  0
    3.6505   -0.7076    2.2730 H   0  0  0  0  0  0  0  0  0  0  0  0
    1.8651    0.7408    1.8038 H   0  0  0  0  0  0  0  0  0  0  0  0
    0.5530    1.7902    0.8537 H   0  0  0  0  0  0  0  0  0  0  0  0
   -0.9976    1.8800   -0.0725 H   0  0  0  0  0  0  0  0  0  0  0  0
   -1.5716   -1.8179    0.2224 H   0  0  0  0  0  0  0  0  0  0  0  0
   -3.3799   -1.5901   -2.1108 H   0  0  0  0  0  0  0  0  0  0  0  0
   -4.6962   -0.6305   -1.2413 H   0  0  0  0  0  0  0  0  0  0  0  0
   -3.8489   -1.9689   -0.3974 H   0  0  0  0  0  0  0  0  0  0  0  0
  1  2  1  0
  1 11  1  0
  1 12  1  0
  1 13  1  0
  2  3  1  0
  2 14  1  0
  3  4  2  0
  3  5  1  0
  5  6  2  3
  5  7  1  0
  6 15  1  0
  6 16  1  0
  7  8  1  0
  7 17  1  0
  8  9  1  0
  8 10  2  0
  9 18  1  0
  9 19  1  0
  9 20  1  0
M  END

> <RosettaParamsInstructions>
M  ROOT 7
M  POLY_N_BB 7
M  POLY_CA_BB 5
M  POLY_C_BB 3
M  POLY_O_BB 4
M  POLY_IGNORE 1 10 9 14 11 12 13 18 19 20
M  POLY_UPPER 2
M  POLY_LOWER 8
M  POLY_CHG 0
M  POLY_PROPERTIES PROTEIN POLYMER ALPHA_AA ALIPHATIC
M  END

$$$$
DHA_new
     RDKit          3D

 20 19  0  0  0  0  0  0  0  0999 V2000
    2.6808   -1.0519    2.6031 C   0  0  0  0  0  0  0  0  0  0  0  0
    1.6795   -0.2408    1.9160 N   0  0  0  0  0  0  0  0  0  0  0  0
    0.5547   -0.8122    1.3004 C   0  0  0  0  0  0  0  0  0  0  0  0
    0.4058   -2.0852    1.3451 O   0  0  0  0  0  0  0  0  0  0  0  0
   -0.4903   -0.0486    0.5921 C   0  0  0  0  0  0  0  0  0  0  0  0
   -0.3770    1.2537    0.5228 C   0  0  0  0  0  0  0  0  0  0  0  0
   -1.5648   -0.7437    0.0197 N   0  0  0  0  0  0  0  0  0  0  0  0
   -2.6541   -0.2125   -0.6908 C   0  0  0  0  0  0  0  0  0  0  0  0
   -3.6897   -1.1713   -1.2120 C   0  0  0  0  0  0  0  0  0  0  0  0
   -2.8515    0.9888   -0.9362 O   0  0  0  0  0  0  0  0  0  0  0  0
    2.2512   -1.4755    3.5385 H   0  0  0  0  0  0  0  0  0  0  0  0
    3.6136   -0.4925    2.7607 H   0  0  0  0  0  0  0  0  0  0  0  0
    2.8961   -1.9065    1.9066 H   0  0  0  0  0  0  0  0  0  0  0  0
    1.8366    0.7773    1.9031 H   0  0  0  0  0  0  0  0  0  0  0  0
    0.4635    1.8068    0.9695 H   0  0  0  0  0  0  0  0  0  0  0  0
   -1.0935    1.8616    0.0283 H   0  0  0  0  0  0  0  0  0  0  0  0
   -1.5574   -1.8194    0.1375 H   0  0  0  0  0  0  0  0  0  0  0  0
   -4.5730   -0.6714   -1.6014 H   0  0  0  0  0  0  0  0  0  0  0  0
   -3.9425   -1.8346   -0.3693 H   0  0  0  0  0  0  0  0  0  0  0  0
   -3.1945   -1.7742   -1.9929 H   0  0  0  0  0  0  0  0  0  0  0  0
  1  2  1  0
  1 11  1  0
  1 12  1  0
  1 13  1  0
  2  3  1  0
  2 14  1  0
  3  4  2  0
  3  5  1  0
  5  6  2  3
  5  7  1  0
  6 15  1  0
  6 16  1  0
  7  8  1  0
  7 17  1  0
  8  9  1  0
  8 10  2  0
  9 18  1  0
  9 19  1  0
  9 20  1  0
M  END

> <RosettaParamsInstructions>
M  ROOT 7
M  POLY_N_BB 7
M  POLY_CA_BB 5
M  POLY_C_BB 3
M  POLY_O_BB 4
M  POLY_IGNORE 1 10 9 14 11 12 13 18 19 20
M  POLY_UPPER 2
M  POLY_LOWER 8
M  POLY_CHG 0
M  POLY_PROPERTIES PROTEIN POLYMER ALPHA_AA ALIPHATIC
M  END

$$$$
DHA_new
     RDKit          3D

 20 19  0  0  0  0  0  0  0  0999 V2000
    2.6738   -1.0903    2.5689 C   0  0  0  0  0  0  0  0  0  0  0  0
    1.7000   -0.2462    1.8702 N   0  0  0  0  0  0  0  0  0  0  0  0
    0.5542   -0.8094    1.2868 C   0  0  0  0  0  0  0  0  0  0  0  0
    0.4003   -2.0613    1.3889 O   0  0  0  0  0  0  0  0  0  0  0  0
   -0.4649   -0.0565    0.5755 C   0  0  0  0  0  0  0  0  0  0  0  0
   -0.3465    1.2373    0.4462 C   0  0  0  0  0  0  0  0  0  0  0  0
   -1.5667   -0.7519    0.0380 N   0  0  0  0  0  0  0  0  0  0  0  0
   -2.6505   -0.2343   -0.6751 C   0  0  0  0  0  0  0  0  0  0  0  0
   -3.7218   -1.1695   -1.1579 C   0  0  0  0  0  0  0  0  0  0  0  0
   -2.7918    0.9737   -0.9431 O   0  0  0  0  0  0  0  0  0  0  0  0
    2.6232   -0.9184    3.6632 H   0  0  0  0  0  0  0  0  0  0  0  0
    2.4587   -2.1489    2.3498 H   0  0  0  0  0  0  0  0  0  0  0  0
    3.6983   -0.7770    2.2549 H   0  0  0  0  0  0  0  0  0  0  0  0
    1.9076    0.7685    1.8359 H   0  0  0  0  0  0  0  0  0  0  0  0
    0.5245    1.7320    0.8794 H   0  0  0  0  0  0  0  0  0  0  0  0
   -1.0364    1.9071   -0.0598 H   0  0  0  0  0  0  0  0  0  0  0  0
   -1.5522   -1.8118    0.2092 H   0  0  0  0  0  0  0  0  0  0  0  0
   -4.7203   -0.6840   -1.1280 H   0  0  0  0  0  0  0  0  0  0  0  0
   -3.5453   -1.4736   -2.2056 H   0  0  0  0  0  0  0  0  0  0  0  0
   -3.7508   -2.0377   -0.4565 H   0  0  0  0  0  0  0  0  0  0  0  0
  1  2  1  0
  1 11  1  0
  1 12  1  0
  1 13  1  0
  2  3  1  0
  2 14  1  0
  3  4  2  0
  3  5  1  0
  5  6  2  3
  5  7  1  0
  6 15  1  0
  6 16  1  0
  7  8  1  0
  7 17  1  0
  8  9  1  0
  8 10  2  0
  9 18  1  0
  9 19  1  0
  9 20  1  0
M  END

> <RosettaParamsInstructions>
M  ROOT 7
M  POLY_N_BB 7
M  POLY_CA_BB 5
M  POLY_C_BB 3
M  POLY_O_BB 4
M  POLY_IGNORE 1 10 9 14 11 12 13 18 19 20
M  POLY_UPPER 2
M  POLY_LOWER 8
M  POLY_CHG 0
M  POLY_PROPERTIES PROTEIN POLYMER ALPHA_AA ALIPHATIC
M  END

$$$$
DHA_new
     RDKit          3D

 20 19  0  0  0  0  0  0  0  0999 V2000
    2.6364   -1.0837    2.5618 C   0  0  0  0  0  0  0  0  0  0  0  0
    1.6903   -0.2217    1.8522 N   0  0  0  0  0  0  0  0  0  0  0  0
    0.5516   -0.8187    1.2985 C   0  0  0  0  0  0  0  0  0  0  0  0
    0.3663   -2.0683    1.4201 O   0  0  0  0  0  0  0  0  0  0  0  0
   -0.4579   -0.0595    0.5709 C   0  0  0  0  0  0  0  0  0  0  0  0
   -0.3122    1.2313    0.4187 C   0  0  0  0  0  0  0  0  0  0  0  0
   -1.5675   -0.7456    0.0505 N   0  0  0  0  0  0  0  0  0  0  0  0
   -2.6463   -0.2271   -0.6732 C   0  0  0  0  0  0  0  0  0  0  0  0
   -3.7393   -1.1593   -1.1387 C   0  0  0  0  0  0  0  0  0  0  0  0
   -2.7477    0.9822   -0.9543 O   0  0  0  0  0  0  0  0  0  0  0  0
    2.8401   -0.6171    3.5658 H   0  0  0  0  0  0  0  0  0  0  0  0
    2.2113   -2.0888    2.7379 H   0  0  0  0  0  0  0  0  0  0  0  0
    3.5976   -1.1578    2.0462 H   0  0  0  0  0  0  0  0  0  0  0  0
    1.8873    0.7874    1.7816 H   0  0  0  0  0  0  0  0  0  0  0  0
   -0.9964    1.8825   -0.0995 H   0  0  0  0  0  0  0  0  0  0  0  0
    0.5578    1.7717    0.8263 H   0  0  0  0  0  0  0  0  0  0  0  0
   -1.5910   -1.8114    0.2326 H   0  0  0  0  0  0  0  0  0  0  0  0
   -3.2294   -2.1120   -1.3907 H   0  0  0  0  0  0  0  0  0  0  0  0
   -4.4352   -1.3458   -0.3145 H   0  0  0  0  0  0  0  0  0  0  0  0
   -4.2221   -0.7904   -2.0516 H   0  0  0  0  0  0  0  0  0  0  0  0
  1  2  1  0
  1 11  1  0
  1 12  1  0
  1 13  1  0
  2  3  1  0
  2 14  1  0
  3  4  2  0
  3  5  1  0
  5  6  2  3
  5  7  1  0
  6 15  1  0
  6 16  1  0
  7  8  1  0
  7 17  1  0
  8  9  1  0
  8 10  2  0
  9 18  1  0
  9 19  1  0
  9 20  1  0
M  END

> <RosettaParamsInstructions>
M  ROOT 7
M  POLY_N_BB 7
M  POLY_CA_BB 5
M  POLY_C_BB 3
M  POLY_O_BB 4
M  POLY_IGNORE 1 10 9 14 11 12 13 18 19 20
M  POLY_UPPER 2
M  POLY_LOWER 8
M  POLY_CHG 0
M  POLY_PROPERTIES PROTEIN POLYMER ALPHA_AA ALIPHATIC
M  END

$$$$
DHA_new
     RDKit          3D

 20 19  0  0  0  0  0  0  0  0999 V2000
    2.6944   -1.0613    2.5182 C   0  0  0  0  0  0  0  0  0  0  0  0
    1.7006   -0.2256    1.8077 N   0  0  0  0  0  0  0  0  0  0  0  0
    0.5814   -0.8564    1.3005 C   0  0  0  0  0  0  0  0  0  0  0  0
    0.4092   -2.1063    1.4373 O   0  0  0  0  0  0  0  0  0  0  0  0
   -0.4674   -0.0902    0.5724 C   0  0  0  0  0  0  0  0  0  0  0  0
   -0.3314    1.1948    0.4089 C   0  0  0  0  0  0  0  0  0  0  0  0
   -1.5928   -0.7834    0.0733 N   0  0  0  0  0  0  0  0  0  0  0  0
   -2.6418   -0.2173   -0.6177 C   0  0  0  0  0  0  0  0  0  0  0  0
   -3.7526   -1.1241   -1.0687 C   0  0  0  0  0  0  0  0  0  0  0  0
   -2.7449    0.9815   -0.8986 O   0  0  0  0  0  0  0  0  0  0  0  0
    3.4704   -1.3946    1.7983 H   0  0  0  0  0  0  0  0  0  0  0  0
    2.1879   -1.9607    2.9260 H   0  0  0  0  0  0  0  0  0  0  0  0
    3.1126   -0.4389    3.3362 H   0  0  0  0  0  0  0  0  0  0  0  0
    1.8782    0.7779    1.7200 H   0  0  0  0  0  0  0  0  0  0  0  0
    0.5539    1.7140    0.8064 H   0  0  0  0  0  0  0  0  0  0  0  0
   -1.0082    1.8511   -0.0911 H   0  0  0  0  0  0  0  0  0  0  0  0
   -1.5856   -1.8387    0.2739 H   0  0  0  0  0  0  0  0  0  0  0  0
   -3.7329   -2.0859   -0.5217 H   0  0  0  0  0  0  0  0  0  0  0  0
   -4.7421   -0.6692   -0.9103 H   0  0  0  0  0  0  0  0  0  0  0  0
   -3.5952   -1.3190   -2.1301 H   0  0  0  0  0  0  0  0  0  0  0  0
  1  2  1  0
  1 11  1  0
  1 12  1  0
  1 13  1  0
  2  3  1  0
  2 14  1  0
  3  4  2  0
  3  5  1  0
  5  6  2  3
  5  7  1  0
  6 15  1  0
  6 16  1  0
  7  8  1  0
  7 17  1  0
  8  9  1  0
  8 10  2  0
  9 18  1  0
  9 19  1  0
  9 20  1  0
M  END

> <RosettaParamsInstructions>
M  ROOT 7
M  POLY_N_BB 7
M  POLY_CA_BB 5
M  POLY_C_BB 3
M  POLY_O_BB 4
M  POLY_IGNORE 1 10 9 14 11 12 13 18 19 20
M  POLY_UPPER 2
M  POLY_LOWER 8
M  POLY_CHG 0
M  POLY_PROPERTIES PROTEIN POLYMER ALPHA_AA ALIPHATIC
M  END

$$$$
DHA_new
     RDKit          3D

 20 19  0  0  0  0  0  0  0  0999 V2000
    2.6720   -1.0615    2.5842 C   0  0  0  0  0  0  0  0  0  0  0  0
    1.7034   -0.2126    1.8719 N   0  0  0  0  0  0  0  0  0  0  0  0
    0.5624   -0.8232    1.3076 C   0  0  0  0  0  0  0  0  0  0  0  0
    0.4190   -2.0820    1.4384 O   0  0  0  0  0  0  0  0  0  0  0  0
   -0.4797   -0.0786    0.5700 C   0  0  0  0  0  0  0  0  0  0  0  0
   -0.3471    1.2092    0.4280 C   0  0  0  0  0  0  0  0  0  0  0  0
   -1.5637   -0.7857    0.0557 N   0  0  0  0  0  0  0  0  0  0  0  0
   -2.6299   -0.2440   -0.6614 C   0  0  0  0  0  0  0  0  0  0  0  0
   -3.7387   -1.1431   -1.1575 C   0  0  0  0  0  0  0  0  0  0  0  0
   -2.7830    0.9544   -0.9555 O   0  0  0  0  0  0  0  0  0  0  0  0
    3.4361   -1.4623    1.8709 H   0  0  0  0  0  0  0  0  0  0  0  0
    3.2117   -0.4767    3.3395 H   0  0  0  0  0  0  0  0  0  0  0  0
    2.0830   -1.8851    3.0431 H   0  0  0  0  0  0  0  0  0  0  0  0
    1.9399    0.8008    1.8375 H   0  0  0  0  0  0  0  0  0  0  0  0
   -1.0350    1.8359   -0.0819 H   0  0  0  0  0  0  0  0  0  0  0  0
    0.5228    1.7443    0.8464 H   0  0  0  0  0  0  0  0  0  0  0  0
   -1.5586   -1.8413    0.2387 H   0  0  0  0  0  0  0  0  0  0  0  0
   -4.6084   -1.0572   -0.4743 H   0  0  0  0  0  0  0  0  0  0  0  0
   -3.4269   -2.1953   -1.1679 H   0  0  0  0  0  0  0  0  0  0  0  0
   -3.9859   -0.8481   -2.1926 H   0  0  0  0  0  0  0  0  0  0  0  0
  1  2  1  0
  1 11  1  0
  1 12  1  0
  1 13  1  0
  2  3  1  0
  2 14  1  0
  3  4  2  0
  3  5  1  0
  5  6  2  3
  5  7  1  0
  6 15  1  0
  6 16  1  0
  7  8  1  0
  7 17  1  0
  8  9  1  0
  8 10  2  0
  9 18  1  0
  9 19  1  0
  9 20  1  0
M  END

> <RosettaParamsInstructions>
M  ROOT 7
M  POLY_N_BB 7
M  POLY_CA_BB 5
M  POLY_C_BB 3
M  POLY_O_BB 4
M  POLY_IGNORE 1 10 9 14 11 12 13 18 19 20
M  POLY_UPPER 2
M  POLY_LOWER 8
M  POLY_CHG 0
M  POLY_PROPERTIES PROTEIN POLYMER ALPHA_AA ALIPHATIC
M  END

$$$$
DHA_new
     RDKit          3D

 20 19  0  0  0  0  0  0  0  0999 V2000
    2.6461   -1.0810    2.5601 C   0  0  0  0  0  0  0  0  0  0  0  0
    1.6831   -0.2311    1.8576 N   0  0  0  0  0  0  0  0  0  0  0  0
    0.5518   -0.7993    1.2939 C   0  0  0  0  0  0  0  0  0  0  0  0
    0.3905   -2.0521    1.4092 O   0  0  0  0  0  0  0  0  0  0  0  0
   -0.4649   -0.0173    0.5715 C   0  0  0  0  0  0  0  0  0  0  0  0
   -0.2843    1.2654    0.4624 C   0  0  0  0  0  0  0  0  0  0  0  0
   -1.5721   -0.7383    0.0473 N   0  0  0  0  0  0  0  0  0  0  0  0
   -2.6622   -0.2433   -0.6700 C   0  0  0  0  0  0  0  0  0  0  0  0
   -3.7239   -1.1658   -1.1341 C   0  0  0  0  0  0  0  0  0  0  0  0
   -2.7821    0.9594   -0.9406 O   0  0  0  0  0  0  0  0  0  0  0  0
    3.4124   -1.4569    1.8557 H   0  0  0  0  0  0  0  0  0  0  0  0
    3.1444   -0.4977    3.3463 H   0  0  0  0  0  0  0  0  0  0  0  0
    2.1050   -1.9421    3.0422 H   0  0  0  0  0  0  0  0  0  0  0  0
    1.8977    0.7712    1.8151 H   0  0  0  0  0  0  0  0  0  0  0  0
    0.5677    1.7852    0.8717 H   0  0  0  0  0  0  0  0  0  0  0  0
   -0.9852    1.9047   -0.0523 H   0  0  0  0  0  0  0  0  0  0  0  0
   -1.5732   -1.7809    0.2207 H   0  0  0  0  0  0  0  0  0  0  0  0
   -4.4880   -1.3599   -0.3666 H   0  0  0  0  0  0  0  0  0  0  0  0
   -3.2597   -2.1612   -1.3664 H   0  0  0  0  0  0  0  0  0  0  0  0
   -4.2094   -0.8112   -2.0827 H   0  0  0  0  0  0  0  0  0  0  0  0
  1  2  1  0
  1 11  1  0
  1 12  1  0
  1 13  1  0
  2  3  1  0
  2 14  1  0
  3  4  2  0
  3  5  1  0
  5  6  2  3
  5  7  1  0
  6 15  1  0
  6 16  1  0
  7  8  1  0
  7 17  1  0
  8  9  1  0
  8 10  2  0
  9 18  1  0
  9 19  1  0
  9 20  1  0
M  END

> <RosettaParamsInstructions>
M  ROOT 7
M  POLY_N_BB 7
M  POLY_CA_BB 5
M  POLY_C_BB 3
M  POLY_O_BB 4
M  POLY_IGNORE 1 10 9 14 11 12 13 18 19 20
M  POLY_UPPER 2
M  POLY_LOWER 8
M  POLY_CHG 0
M  POLY_PROPERTIES PROTEIN POLYMER ALPHA_AA ALIPHATIC
M  END

$$$$
DHA_new
     RDKit          3D

 20 19  0  0  0  0  0  0  0  0999 V2000
    2.6693   -1.0906    2.5913 C   0  0  0  0  0  0  0  0  0  0  0  0
    1.6813   -0.2633    1.8683 N   0  0  0  0  0  0  0  0  0  0  0  0
    0.5406   -0.8047    1.2979 C   0  0  0  0  0  0  0  0  0  0  0  0
    0.3467   -2.0599    1.4063 O   0  0  0  0  0  0  0  0  0  0  0  0
   -0.4578   -0.0167    0.5759 C   0  0  0  0  0  0  0  0  0  0  0  0
   -0.3147    1.2891    0.4289 C   0  0  0  0  0  0  0  0  0  0  0  0
   -1.5703   -0.7128    0.0491 N   0  0  0  0  0  0  0  0  0  0  0  0
   -2.6612   -0.2457   -0.6703 C   0  0  0  0  0  0  0  0  0  0  0  0
   -3.7529   -1.1699   -1.1446 C   0  0  0  0  0  0  0  0  0  0  0  0
   -2.8138    0.9531   -0.9710 O   0  0  0  0  0  0  0  0  0  0  0  0
    2.2073   -2.0369    2.9341 H   0  0  0  0  0  0  0  0  0  0  0  0
    3.5276   -1.3414    1.9350 H   0  0  0  0  0  0  0  0  0  0  0  0
    3.0574   -0.5061    3.4335 H   0  0  0  0  0  0  0  0  0  0  0  0
    1.9009    0.7433    1.8188 H   0  0  0  0  0  0  0  0  0  0  0  0
   -1.0459    1.8588   -0.0986 H   0  0  0  0  0  0  0  0  0  0  0  0
    0.5696    1.7574    0.8626 H   0  0  0  0  0  0  0  0  0  0  0  0
   -1.5656   -1.7710    0.2387 H   0  0  0  0  0  0  0  0  0  0  0  0
   -3.8129   -2.0174   -0.4281 H   0  0  0  0  0  0  0  0  0  0  0  0
   -3.4145   -1.5783   -2.1092 H   0  0  0  0  0  0  0  0  0  0  0  0
   -4.6976   -0.6394   -1.2775 H   0  0  0  0  0  0  0  0  0  0  0  0
  1  2  1  0
  1 11  1  0
  1 12  1  0
  1 13  1  0
  2  3  1  0
  2 14  1  0
  3  4  2  0
  3  5  1  0
  5  6  2  3
  5  7  1  0
  6 15  1  0
  6 16  1  0
  7  8  1  0
  7 17  1  0
  8  9  1  0
  8 10  2  0
  9 18  1  0
  9 19  1  0
  9 20  1  0
M  END

> <RosettaParamsInstructions>
M  ROOT 7
M  POLY_N_BB 7
M  POLY_CA_BB 5
M  POLY_C_BB 3
M  POLY_O_BB 4
M  POLY_IGNORE 1 10 9 14 11 12 13 18 19 20
M  POLY_UPPER 2
M  POLY_LOWER 8
M  POLY_CHG 0
M  POLY_PROPERTIES PROTEIN POLYMER ALPHA_AA ALIPHATIC
M  END

$$$$
DHA_new
     RDKit          3D

 20 19  0  0  0  0  0  0  0  0999 V2000
    2.2265   -1.5780    2.5145 C   0  0  0  0  0  0  0  0  0  0  0  0
    1.0419   -1.1951    1.7224 N   0  0  0  0  0  0  0  0  0  0  0  0
    0.8921    0.0980    1.2331 C   0  0  0  0  0  0  0  0  0  0  0  0
    1.7951    0.9518    1.4789 O   0  0  0  0  0  0  0  0  0  0  0  0
   -0.2854    0.4839    0.4440 C   0  0  0  0  0  0  0  0  0  0  0  0
   -0.3497    1.7565    0.0097 C   0  0  0  0  0  0  0  0  0  0  0  0
   -1.2780   -0.4587    0.1751 N   0  0  0  0  0  0  0  0  0  0  0  0
   -2.4600   -0.2582   -0.5585 C   0  0  0  0  0  0  0  0  0  0  0  0
   -3.4466   -1.3925   -0.7641 C   0  0  0  0  0  0  0  0  0  0  0  0
   -2.8026    0.8083   -1.0864 O   0  0  0  0  0  0  0  0  0  0  0  0
    2.5696   -2.6069    2.2110 H   0  0  0  0  0  0  0  0  0  0  0  0
    1.9777   -1.5712    3.5899 H   0  0  0  0  0  0  0  0  0  0  0  0
    3.0094   -0.8434    2.2682 H   0  0  0  0  0  0  0  0  0  0  0  0
    0.3731   -1.9728    1.5858 H   0  0  0  0  0  0  0  0  0  0  0  0
    0.4702    2.4151    0.2693 H   0  0  0  0  0  0  0  0  0  0  0  0
   -1.1475    2.1394   -0.5629 H   0  0  0  0  0  0  0  0  0  0  0  0
   -1.1464   -1.4466    0.5586 H   0  0  0  0  0  0  0  0  0  0  0  0
   -3.0895   -2.2752   -0.1953 H   0  0  0  0  0  0  0  0  0  0  0  0
   -3.5399   -1.6310   -1.8273 H   0  0  0  0  0  0  0  0  0  0  0  0
   -4.4165   -1.0756   -0.3251 H   0  0  0  0  0  0  0  0  0  0  0  0
  1  2  1  0
  1 11  1  0
  1 12  1  0
  1 13  1  0
  2  3  1  0
  2 14  1  0
  3  4  2  0
  3  5  1  0
  5  6  2  3
  5  7  1  0
  6 15  1  0
  6 16  1  0
  7  8  1  0
  7 17  1  0
  8  9  1  0
  8 10  2  0
  9 18  1  0
  9 19  1  0
  9 20  1  0
M  END

> <RosettaParamsInstructions>
M  ROOT 7
M  POLY_N_BB 7
M  POLY_CA_BB 5
M  POLY_C_BB 3
M  POLY_O_BB 4
M  POLY_IGNORE 1 10 9 14 11 12 13 18 19 20
M  POLY_UPPER 2
M  POLY_LOWER 8
M  POLY_CHG 0
M  POLY_PROPERTIES PROTEIN POLYMER ALPHA_AA ALIPHATIC
M  END

$$$$
DHA_new
     RDKit          3D

 20 19  0  0  0  0  0  0  0  0999 V2000
    2.7081   -1.0442    2.5916 C   0  0  0  0  0  0  0  0  0  0  0  0
    1.6977   -0.2524    1.8772 N   0  0  0  0  0  0  0  0  0  0  0  0
    0.5634   -0.8611    1.3064 C   0  0  0  0  0  0  0  0  0  0  0  0
    0.3829   -2.1210    1.3952 O   0  0  0  0  0  0  0  0  0  0  0  0
   -0.4783   -0.1123    0.5802 C   0  0  0  0  0  0  0  0  0  0  0  0
   -0.3477    1.1774    0.4575 C   0  0  0  0  0  0  0  0  0  0  0  0
   -1.5756   -0.8152    0.0456 N   0  0  0  0  0  0  0  0  0  0  0  0
   -2.6331   -0.2274   -0.6650 C   0  0  0  0  0  0  0  0  0  0  0  0
   -3.7410   -1.1271   -1.1754 C   0  0  0  0  0  0  0  0  0  0  0  0
   -2.7949    0.9749   -0.9455 O   0  0  0  0  0  0  0  0  0  0  0  0
    3.6460   -1.1211    1.9973 H   0  0  0  0  0  0  0  0  0  0  0  0
    2.9906   -0.4747    3.5124 H   0  0  0  0  0  0  0  0  0  0  0  0
    2.3256   -2.0589    2.8268 H   0  0  0  0  0  0  0  0  0  0  0  0
    1.8430    0.7646    1.8053 H   0  0  0  0  0  0  0  0  0  0  0  0
   -1.0412    1.8350   -0.0505 H   0  0  0  0  0  0  0  0  0  0  0  0
    0.5071    1.7077    0.8765 H   0  0  0  0  0  0  0  0  0  0  0  0
   -1.6123   -1.8887    0.1899 H   0  0  0  0  0  0  0  0  0  0  0  0
   -3.5247   -2.1817   -0.9422 H   0  0  0  0  0  0  0  0  0  0  0  0
   -3.8326   -0.9727   -2.2507 H   0  0  0  0  0  0  0  0  0  0  0  0
   -4.6895   -0.8532   -0.6917 H   0  0  0  0  0  0  0  0  0  0  0  0
  1  2  1  0
  1 11  1  0
  1 12  1  0
  1 13  1  0
  2  3  1  0
  2 14  1  0
  3  4  2  0
  3  5  1  0
  5  6  2  3
  5  7  1  0
  6 15  1  0
  6 16  1  0
  7  8  1  0
  7 17  1  0
  8  9  1  0
  8 10  2  0
  9 18  1  0
  9 19  1  0
  9 20  1  0
M  END

> <RosettaParamsInstructions>
M  ROOT 7
M  POLY_N_BB 7
M  POLY_CA_BB 5
M  POLY_C_BB 3
M  POLY_O_BB 4
M  POLY_IGNORE 1 10 9 14 11 12 13 18 19 20
M  POLY_UPPER 2
M  POLY_LOWER 8
M  POLY_CHG 0
M  POLY_PROPERTIES PROTEIN POLYMER ALPHA_AA ALIPHATIC
M  END

$$$$
DHA_new
     RDKit          3D

 20 19  0  0  0  0  0  0  0  0999 V2000
    2.6280   -1.0180    2.6987 C   0  0  0  0  0  0  0  0  0  0  0  0
    1.6728   -0.2481    1.8880 N   0  0  0  0  0  0  0  0  0  0  0  0
    0.5223   -0.8163    1.3536 C   0  0  0  0  0  0  0  0  0  0  0  0
    0.2959   -2.0517    1.5807 O   0  0  0  0  0  0  0  0  0  0  0  0
   -0.4341   -0.0776    0.5514 C   0  0  0  0  0  0  0  0  0  0  0  0
   -0.2594    1.1887    0.2837 C   0  0  0  0  0  0  0  0  0  0  0  0
   -1.5643   -0.7782    0.0687 N   0  0  0  0  0  0  0  0  0  0  0  0
   -2.6054   -0.2769   -0.7150 C   0  0  0  0  0  0  0  0  0  0  0  0
   -3.7538   -1.1611   -1.1546 C   0  0  0  0  0  0  0  0  0  0  0  0
   -2.6725    0.8964   -1.1029 O   0  0  0  0  0  0  0  0  0  0  0  0
    2.4786   -2.0835    2.3655 H   0  0  0  0  0  0  0  0  0  0  0  0
    3.6460   -0.7313    2.3859 H   0  0  0  0  0  0  0  0  0  0  0  0
    2.4314   -0.8858    3.7733 H   0  0  0  0  0  0  0  0  0  0  0  0
    1.9318    0.7408    1.7536 H   0  0  0  0  0  0  0  0  0  0  0  0
   -0.8955    1.8257   -0.2929 H   0  0  0  0  0  0  0  0  0  0  0  0
    0.6405    1.6770    0.6886 H   0  0  0  0  0  0  0  0  0  0  0  0
   -1.6358   -1.8176    0.3324 H   0  0  0  0  0  0  0  0  0  0  0  0
   -3.8055   -1.1282   -2.2652 H   0  0  0  0  0  0  0  0  0  0  0  0
   -3.5707   -2.1911   -0.7783 H   0  0  0  0  0  0  0  0  0  0  0  0
   -4.6568   -0.7153   -0.6743 H   0  0  0  0  0  0  0  0  0  0  0  0
  1  2  1  0
  1 11  1  0
  1 12  1  0
  1 13  1  0
  2  3  1  0
  2 14  1  0
  3  4  2  0
  3  5  1  0
  5  6  2  3
  5  7  1  0
  6 15  1  0
  6 16  1  0
  7  8  1  0
  7 17  1  0
  8  9  1  0
  8 10  2  0
  9 18  1  0
  9 19  1  0
  9 20  1  0
M  END

> <RosettaParamsInstructions>
M  ROOT 7
M  POLY_N_BB 7
M  POLY_CA_BB 5
M  POLY_C_BB 3
M  POLY_O_BB 4
M  POLY_IGNORE 1 10 9 14 11 12 13 18 19 20
M  POLY_UPPER 2
M  POLY_LOWER 8
M  POLY_CHG 0
M  POLY_PROPERTIES PROTEIN POLYMER ALPHA_AA ALIPHATIC
M  END

$$$$
DHA_new
     RDKit          3D

 20 19  0  0  0  0  0  0  0  0999 V2000
    2.6622   -1.0710    2.5791 C   0  0  0  0  0  0  0  0  0  0  0  0
    1.7112   -0.2376    1.8224 N   0  0  0  0  0  0  0  0  0  0  0  0
    0.5472   -0.7988    1.3066 C   0  0  0  0  0  0  0  0  0  0  0  0
    0.3504   -2.0314    1.5148 O   0  0  0  0  0  0  0  0  0  0  0  0
   -0.4464   -0.0332    0.5433 C   0  0  0  0  0  0  0  0  0  0  0  0
   -0.2675    1.2348    0.3158 C   0  0  0  0  0  0  0  0  0  0  0  0
   -1.5776   -0.7374    0.0834 N   0  0  0  0  0  0  0  0  0  0  0  0
   -2.6482   -0.2319   -0.6562 C   0  0  0  0  0  0  0  0  0  0  0  0
   -3.7794   -1.1641   -1.0569 C   0  0  0  0  0  0  0  0  0  0  0  0
   -2.7925    0.9477   -1.0444 O   0  0  0  0  0  0  0  0  0  0  0  0
    3.3148   -1.5789    1.8443 H   0  0  0  0  0  0  0  0  0  0  0  0
    2.1053   -1.8812    3.1096 H   0  0  0  0  0  0  0  0  0  0  0  0
    3.2234   -0.4517    3.2892 H   0  0  0  0  0  0  0  0  0  0  0  0
    1.9698    0.7508    1.7127 H   0  0  0  0  0  0  0  0  0  0  0  0
   -0.9681    1.8331   -0.2376 H   0  0  0  0  0  0  0  0  0  0  0  0
    0.6420    1.7076    0.7099 H   0  0  0  0  0  0  0  0  0  0  0  0
   -1.5990   -1.7863    0.3434 H   0  0  0  0  0  0  0  0  0  0  0  0
   -4.7356   -0.6261   -1.0217 H   0  0  0  0  0  0  0  0  0  0  0  0
   -3.5421   -1.4883   -2.0766 H   0  0  0  0  0  0  0  0  0  0  0  0
   -3.7763   -2.0085   -0.3403 H   0  0  0  0  0  0  0  0  0  0  0  0
  1  2  1  0
  1 11  1  0
  1 12  1  0
  1 13  1  0
  2  3  1  0
  2 14  1  0
  3  4  2  0
  3  5  1  0
  5  6  2  3
  5  7  1  0
  6 15  1  0
  6 16  1  0
  7  8  1  0
  7 17  1  0
  8  9  1  0
  8 10  2  0
  9 18  1  0
  9 19  1  0
  9 20  1  0
M  END

> <RosettaParamsInstructions>
M  ROOT 7
M  POLY_N_BB 7
M  POLY_CA_BB 5
M  POLY_C_BB 3
M  POLY_O_BB 4
M  POLY_IGNORE 1 10 9 14 11 12 13 18 19 20
M  POLY_UPPER 2
M  POLY_LOWER 8
M  POLY_CHG 0
M  POLY_PROPERTIES PROTEIN POLYMER ALPHA_AA ALIPHATIC
M  END

$$$$
DHA_new
     RDKit          3D

 20 19  0  0  0  0  0  0  0  0999 V2000
    2.6731   -1.0345    2.5830 C   0  0  0  0  0  0  0  0  0  0  0  0
    1.6694   -0.2383    1.8637 N   0  0  0  0  0  0  0  0  0  0  0  0
    0.5562   -0.8521    1.3114 C   0  0  0  0  0  0  0  0  0  0  0  0
    0.4308   -2.0985    1.4422 O   0  0  0  0  0  0  0  0  0  0  0  0
   -0.4674   -0.0704    0.5827 C   0  0  0  0  0  0  0  0  0  0  0  0
   -0.3478    1.2121    0.4426 C   0  0  0  0  0  0  0  0  0  0  0  0
   -1.5586   -0.8028    0.0627 N   0  0  0  0  0  0  0  0  0  0  0  0
   -2.6208   -0.2331   -0.6538 C   0  0  0  0  0  0  0  0  0  0  0  0
   -3.7321   -1.1412   -1.1569 C   0  0  0  0  0  0  0  0  0  0  0  0
   -2.7776    0.9593   -0.9414 O   0  0  0  0  0  0  0  0  0  0  0  0
    3.3011   -1.6185    1.8736 H   0  0  0  0  0  0  0  0  0  0  0  0
    3.3659   -0.3927    3.1595 H   0  0  0  0  0  0  0  0  0  0  0  0
    2.1475   -1.7777    3.2218 H   0  0  0  0  0  0  0  0  0  0  0  0
    1.8458    0.7689    1.8021 H   0  0  0  0  0  0  0  0  0  0  0  0
    0.5218    1.7552    0.8636 H   0  0  0  0  0  0  0  0  0  0  0  0
   -1.0233    1.8686   -0.0613 H   0  0  0  0  0  0  0  0  0  0  0  0
   -1.5881   -1.8732    0.2209 H   0  0  0  0  0  0  0  0  0  0  0  0
   -3.5381   -2.1825   -0.8377 H   0  0  0  0  0  0  0  0  0  0  0  0
   -3.7583   -1.0971   -2.2583 H   0  0  0  0  0  0  0  0  0  0  0  0
   -4.7059   -0.8035   -0.7797 H   0  0  0  0  0  0  0  0  0  0  0  0
  1  2  1  0
  1 11  1  0
  1 12  1  0
  1 13  1  0
  2  3  1  0
  2 14  1  0
  3  4  2  0
  3  5  1  0
  5  6  2  3
  5  7  1  0
  6 15  1  0
  6 16  1  0
  7  8  1  0
  7 17  1  0
  8  9  1  0
  8 10  2  0
  9 18  1  0
  9 19  1  0
  9 20  1  0
M  END

> <RosettaParamsInstructions>
M  ROOT 7
M  POLY_N_BB 7
M  POLY_CA_BB 5
M  POLY_C_BB 3
M  POLY_O_BB 4
M  POLY_IGNORE 1 10 9 14 11 12 13 18 19 20
M  POLY_UPPER 2
M  POLY_LOWER 8
M  POLY_CHG 0
M  POLY_PROPERTIES PROTEIN POLYMER ALPHA_AA ALIPHATIC
M  END

$$$$
DHA_new
     RDKit          3D

 20 19  0  0  0  0  0  0  0  0999 V2000
    2.6951   -1.0486    2.6042 C   0  0  0  0  0  0  0  0  0  0  0  0
    1.7084   -0.2601    1.8384 N   0  0  0  0  0  0  0  0  0  0  0  0
    0.5529   -0.8398    1.3213 C   0  0  0  0  0  0  0  0  0  0  0  0
    0.3510   -2.0631    1.5143 O   0  0  0  0  0  0  0  0  0  0  0  0
   -0.4669   -0.1077    0.5507 C   0  0  0  0  0  0  0  0  0  0  0  0
   -0.2182    1.1675    0.3714 C   0  0  0  0  0  0  0  0  0  0  0  0
   -1.6065   -0.7840    0.0670 N   0  0  0  0  0  0  0  0  0  0  0  0
   -2.6532   -0.2519   -0.6685 C   0  0  0  0  0  0  0  0  0  0  0  0
   -3.8225   -1.1136   -1.1225 C   0  0  0  0  0  0  0  0  0  0  0  0
   -2.7182    0.9438   -1.0079 O   0  0  0  0  0  0  0  0  0  0  0  0
    2.5682   -2.1329    2.4133 H   0  0  0  0  0  0  0  0  0  0  0  0
    2.5557   -0.7596    3.6558 H   0  0  0  0  0  0  0  0  0  0  0  0
    3.7048   -0.7553    2.2931 H   0  0  0  0  0  0  0  0  0  0  0  0
    1.9775    0.7341    1.7418 H   0  0  0  0  0  0  0  0  0  0  0  0
   -0.9093    1.7723   -0.1782 H   0  0  0  0  0  0  0  0  0  0  0  0
    0.6490    1.6974    0.7356 H   0  0  0  0  0  0  0  0  0  0  0  0
   -1.6706   -1.8317    0.2948 H   0  0  0  0  0  0  0  0  0  0  0  0
   -4.5805   -1.1630   -0.3139 H   0  0  0  0  0  0  0  0  0  0  0  0
   -3.4689   -2.1461   -1.3208 H   0  0  0  0  0  0  0  0  0  0  0  0
   -4.2543   -0.7100   -2.0491 H   0  0  0  0  0  0  0  0  0  0  0  0
  1  2  1  0
  1 11  1  0
  1 12  1  0
  1 13  1  0
  2  3  1  0
  2 14  1  0
  3  4  2  0
  3  5  1  0
  5  6  2  3
  5  7  1  0
  6 15  1  0
  6 16  1  0
  7  8  1  0
  7 17  1  0
  8  9  1  0
  8 10  2  0
  9 18  1  0
  9 19  1  0
  9 20  1  0
M  END

> <RosettaParamsInstructions>
M  ROOT 7
M  POLY_N_BB 7
M  POLY_CA_BB 5
M  POLY_C_BB 3
M  POLY_O_BB 4
M  POLY_IGNORE 1 10 9 14 11 12 13 18 19 20
M  POLY_UPPER 2
M  POLY_LOWER 8
M  POLY_CHG 0
M  POLY_PROPERTIES PROTEIN POLYMER ALPHA_AA ALIPHATIC
M  END

$$$$
DHA_new
     RDKit          3D

 20 19  0  0  0  0  0  0  0  0999 V2000
    2.6801   -1.0823    2.5730 C   0  0  0  0  0  0  0  0  0  0  0  0
    1.7145   -0.2658    1.8422 N   0  0  0  0  0  0  0  0  0  0  0  0
    0.5491   -0.8219    1.2966 C   0  0  0  0  0  0  0  0  0  0  0  0
    0.3535   -2.0717    1.4574 O   0  0  0  0  0  0  0  0  0  0  0  0
   -0.4658   -0.0491    0.5471 C   0  0  0  0  0  0  0  0  0  0  0  0
   -0.3117    1.2364    0.3547 C   0  0  0  0  0  0  0  0  0  0  0  0
   -1.5825   -0.7871    0.0690 N   0  0  0  0  0  0  0  0  0  0  0  0
   -2.6339   -0.2365   -0.6529 C   0  0  0  0  0  0  0  0  0  0  0  0
   -3.7549   -1.1413   -1.0970 C   0  0  0  0  0  0  0  0  0  0  0  0
   -2.7377    0.9408   -0.9693 O   0  0  0  0  0  0  0  0  0  0  0  0
    3.6473   -1.0869    2.0003 H   0  0  0  0  0  0  0  0  0  0  0  0
    2.2716   -2.0897    2.7277 H   0  0  0  0  0  0  0  0  0  0  0  0
    2.8375   -0.5935    3.5519 H   0  0  0  0  0  0  0  0  0  0  0  0
    1.9275    0.7355    1.7456 H   0  0  0  0  0  0  0  0  0  0  0  0
    0.5859    1.7076    0.7656 H   0  0  0  0  0  0  0  0  0  0  0  0
   -0.9896    1.8564   -0.1685 H   0  0  0  0  0  0  0  0  0  0  0  0
   -1.6227   -1.8394    0.2756 H   0  0  0  0  0  0  0  0  0  0  0  0
   -4.7054   -0.5776   -1.0098 H   0  0  0  0  0  0  0  0  0  0  0  0
   -3.5649   -1.4359   -2.1270 H   0  0  0  0  0  0  0  0  0  0  0  0
   -3.8043   -2.0502   -0.4412 H   0  0  0  0  0  0  0  0  0  0  0  0
  1  2  1  0
  1 11  1  0
  1 12  1  0
  1 13  1  0
  2  3  1  0
  2 14  1  0
  3  4  2  0
  3  5  1  0
  5  6  2  3
  5  7  1  0
  6 15  1  0
  6 16  1  0
  7  8  1  0
  7 17  1  0
  8  9  1  0
  8 10  2  0
  9 18  1  0
  9 19  1  0
  9 20  1  0
M  END

> <RosettaParamsInstructions>
M  ROOT 7
M  POLY_N_BB 7
M  POLY_CA_BB 5
M  POLY_C_BB 3
M  POLY_O_BB 4
M  POLY_IGNORE 1 10 9 14 11 12 13 18 19 20
M  POLY_UPPER 2
M  POLY_LOWER 8
M  POLY_CHG 0
M  POLY_PROPERTIES PROTEIN POLYMER ALPHA_AA ALIPHATIC
M  END

$$$$
DHA_new
     RDKit          3D

 20 19  0  0  0  0  0  0  0  0999 V2000
    2.6600   -1.0621    2.5571 C   0  0  0  0  0  0  0  0  0  0  0  0
    1.6674   -0.2147    1.9015 N   0  0  0  0  0  0  0  0  0  0  0  0
    0.5632   -0.8248    1.2845 C   0  0  0  0  0  0  0  0  0  0  0  0
    0.4381   -2.1039    1.3022 O   0  0  0  0  0  0  0  0  0  0  0  0
   -0.4772   -0.0420    0.6049 C   0  0  0  0  0  0  0  0  0  0  0  0
   -0.3618    1.2540    0.5802 C   0  0  0  0  0  0  0  0  0  0  0  0
   -1.5464   -0.7585    0.0166 N   0  0  0  0  0  0  0  0  0  0  0  0
   -2.6491   -0.2659   -0.6793 C   0  0  0  0  0  0  0  0  0  0  0  0
   -3.6860   -1.1852   -1.2335 C   0  0  0  0  0  0  0  0  0  0  0  0
   -2.8332    0.9448   -0.8771 O   0  0  0  0  0  0  0  0  0  0  0  0
    3.1909   -0.5100    3.3494 H   0  0  0  0  0  0  0  0  0  0  0  0
    3.3966   -1.3853    1.7968 H   0  0  0  0  0  0  0  0  0  0  0  0
    2.1619   -1.9255    3.0435 H   0  0  0  0  0  0  0  0  0  0  0  0
    1.8462    0.7931    1.9356 H   0  0  0  0  0  0  0  0  0  0  0  0
    0.4634    1.7838    1.0358 H   0  0  0  0  0  0  0  0  0  0  0  0
   -1.0963    1.8768    0.0953 H   0  0  0  0  0  0  0  0  0  0  0  0
   -1.5244   -1.8305    0.1075 H   0  0  0  0  0  0  0  0  0  0  0  0
   -3.9236   -0.8427   -2.2535 H   0  0  0  0  0  0  0  0  0  0  0  0
   -4.6165   -1.1388   -0.6136 H   0  0  0  0  0  0  0  0  0  0  0  0
   -3.2797   -2.2150   -1.2132 H   0  0  0  0  0  0  0  0  0  0  0  0
  1  2  1  0
  1 11  1  0
  1 12  1  0
  1 13  1  0
  2  3  1  0
  2 14  1  0
  3  4  2  0
  3  5  1  0
  5  6  2  3
  5  7  1  0
  6 15  1  0
  6 16  1  0
  7  8  1  0
  7 17  1  0
  8  9  1  0
  8 10  2  0
  9 18  1  0
  9 19  1  0
  9 20  1  0
M  END

> <RosettaParamsInstructions>
M  ROOT 7
M  POLY_N_BB 7
M  POLY_CA_BB 5
M  POLY_C_BB 3
M  POLY_O_BB 4
M  POLY_IGNORE 1 10 9 14 11 12 13 18 19 20
M  POLY_UPPER 2
M  POLY_LOWER 8
M  POLY_CHG 0
M  POLY_PROPERTIES PROTEIN POLYMER ALPHA_AA ALIPHATIC
M  END

$$$$
DHA_new
     RDKit          3D

 20 19  0  0  0  0  0  0  0  0999 V2000
    2.6655   -1.0876    2.5749 C   0  0  0  0  0  0  0  0  0  0  0  0
    1.7215   -0.1820    1.8761 N   0  0  0  0  0  0  0  0  0  0  0  0
    0.5931   -0.7896    1.3124 C   0  0  0  0  0  0  0  0  0  0  0  0
    0.4222   -2.0288    1.4115 O   0  0  0  0  0  0  0  0  0  0  0  0
   -0.4542   -0.0411    0.5783 C   0  0  0  0  0  0  0  0  0  0  0  0
   -0.2874    1.2575    0.4673 C   0  0  0  0  0  0  0  0  0  0  0  0
   -1.5665   -0.7612    0.0423 N   0  0  0  0  0  0  0  0  0  0  0  0
   -2.6490   -0.2611   -0.6724 C   0  0  0  0  0  0  0  0  0  0  0  0
   -3.7464   -1.1694   -1.1694 C   0  0  0  0  0  0  0  0  0  0  0  0
   -2.7991    0.9354   -0.9526 O   0  0  0  0  0  0  0  0  0  0  0  0
    2.0191   -1.7623    3.1732 H   0  0  0  0  0  0  0  0  0  0  0  0
    3.2014   -1.6172    1.7620 H   0  0  0  0  0  0  0  0  0  0  0  0
    3.3349   -0.5241    3.2383 H   0  0  0  0  0  0  0  0  0  0  0  0
    1.9581    0.8182    1.8539 H   0  0  0  0  0  0  0  0  0  0  0  0
   -1.0333    1.8546   -0.0658 H   0  0  0  0  0  0  0  0  0  0  0  0
    0.5713    1.7338    0.8941 H   0  0  0  0  0  0  0  0  0  0  0  0
   -1.5514   -1.8215    0.2216 H   0  0  0  0  0  0  0  0  0  0  0  0
   -4.1542   -0.7887   -2.1195 H   0  0  0  0  0  0  0  0  0  0  0  0
   -4.5101   -1.2021   -0.3874 H   0  0  0  0  0  0  0  0  0  0  0  0
   -3.3420   -2.2151   -1.2977 H   0  0  0  0  0  0  0  0  0  0  0  0
  1  2  1  0
  1 11  1  0
  1 12  1  0
  1 13  1  0
  2  3  1  0
  2 14  1  0
  3  4  2  0
  3  5  1  0
  5  6  2  3
  5  7  1  0
  6 15  1  0
  6 16  1  0
  7  8  1  0
  7 17  1  0
  8  9  1  0
  8 10  2  0
  9 18  1  0
  9 19  1  0
  9 20  1  0
M  END

> <RosettaParamsInstructions>
M  ROOT 7
M  POLY_N_BB 7
M  POLY_CA_BB 5
M  POLY_C_BB 3
M  POLY_O_BB 4
M  POLY_IGNORE 1 10 9 14 11 12 13 18 19 20
M  POLY_UPPER 2
M  POLY_LOWER 8
M  POLY_CHG 0
M  POLY_PROPERTIES PROTEIN POLYMER ALPHA_AA ALIPHATIC
M  END

$$$$
DHA_new
     RDKit          3D

 20 19  0  0  0  0  0  0  0  0999 V2000
    2.6814   -1.0870    2.5198 C   0  0  0  0  0  0  0  0  0  0  0  0
    1.6856   -0.2100    1.8740 N   0  0  0  0  0  0  0  0  0  0  0  0
    0.5795   -0.8223    1.2833 C   0  0  0  0  0  0  0  0  0  0  0  0
    0.4486   -2.1028    1.3099 O   0  0  0  0  0  0  0  0  0  0  0  0
   -0.4575   -0.0229    0.6198 C   0  0  0  0  0  0  0  0  0  0  0  0
   -0.3525    1.2759    0.5767 C   0  0  0  0  0  0  0  0  0  0  0  0
   -1.5411   -0.7398    0.0505 N   0  0  0  0  0  0  0  0  0  0  0  0
   -2.6504   -0.2458   -0.6304 C   0  0  0  0  0  0  0  0  0  0  0  0
   -3.7219   -1.1644   -1.1766 C   0  0  0  0  0  0  0  0  0  0  0  0
   -2.8741    0.9663   -0.8566 O   0  0  0  0  0  0  0  0  0  0  0  0
    2.7255   -2.0250    1.9081 H   0  0  0  0  0  0  0  0  0  0  0  0
    3.6697   -0.5928    2.3752 H   0  0  0  0  0  0  0  0  0  0  0  0
    2.4231   -1.2823    3.5590 H   0  0  0  0  0  0  0  0  0  0  0  0
    1.8409    0.7953    1.8835 H   0  0  0  0  0  0  0  0  0  0  0  0
    0.4743    1.7844    1.0142 H   0  0  0  0  0  0  0  0  0  0  0  0
   -1.0979    1.8711    0.0982 H   0  0  0  0  0  0  0  0  0  0  0  0
   -1.5022   -1.8000    0.1577 H   0  0  0  0  0  0  0  0  0  0  0  0
   -3.7751   -2.0648   -0.5126 H   0  0  0  0  0  0  0  0  0  0  0  0
   -4.7176   -0.6791   -1.1312 H   0  0  0  0  0  0  0  0  0  0  0  0
   -3.4449   -1.5064   -2.1817 H   0  0  0  0  0  0  0  0  0  0  0  0
  1  2  1  0
  1 11  1  0
  1 12  1  0
  1 13  1  0
  2  3  1  0
  2 14  1  0
  3  4  2  0
  3  5  1  0
  5  6  2  3
  5  7  1  0
  6 15  1  0
  6 16  1  0
  7  8  1  0
  7 17  1  0
  8  9  1  0
  8 10  2  0
  9 18  1  0
  9 19  1  0
  9 20  1  0
M  END

> <RosettaParamsInstructions>
M  ROOT 7
M  POLY_N_BB 7
M  POLY_CA_BB 5
M  POLY_C_BB 3
M  POLY_O_BB 4
M  POLY_IGNORE 1 10 9 14 11 12 13 18 19 20
M  POLY_UPPER 2
M  POLY_LOWER 8
M  POLY_CHG 0
M  POLY_PROPERTIES PROTEIN POLYMER ALPHA_AA ALIPHATIC
M  END

$$$$
DHA_new
     RDKit          3D

 20 19  0  0  0  0  0  0  0  0999 V2000
    2.7135   -1.0745    2.4821 C   0  0  0  0  0  0  0  0  0  0  0  0
    1.6811   -0.2380    1.8451 N   0  0  0  0  0  0  0  0  0  0  0  0
    0.5665   -0.8201    1.2467 C   0  0  0  0  0  0  0  0  0  0  0  0
    0.4707   -2.0994    1.2694 O   0  0  0  0  0  0  0  0  0  0  0  0
   -0.4722   -0.0209    0.6083 C   0  0  0  0  0  0  0  0  0  0  0  0
   -0.3489    1.2814    0.5999 C   0  0  0  0  0  0  0  0  0  0  0  0
   -1.5562   -0.7373    0.0355 N   0  0  0  0  0  0  0  0  0  0  0  0
   -2.6749   -0.2382   -0.6303 C   0  0  0  0  0  0  0  0  0  0  0  0
   -3.7013   -1.1811   -1.1568 C   0  0  0  0  0  0  0  0  0  0  0  0
   -2.8680    0.9741   -0.8131 O   0  0  0  0  0  0  0  0  0  0  0  0
    3.5038   -1.3485    1.7364 H   0  0  0  0  0  0  0  0  0  0  0  0
    3.1252   -0.5407    3.3517 H   0  0  0  0  0  0  0  0  0  0  0  0
    2.1830   -1.9884    2.8286 H   0  0  0  0  0  0  0  0  0  0  0  0
    1.8420    0.7676    1.8759 H   0  0  0  0  0  0  0  0  0  0  0  0
    0.4784    1.8225    1.0373 H   0  0  0  0  0  0  0  0  0  0  0  0
   -1.1083    1.8869    0.1318 H   0  0  0  0  0  0  0  0  0  0  0  0
   -1.5063   -1.7898    0.1273 H   0  0  0  0  0  0  0  0  0  0  0  0
   -4.4860   -1.3999   -0.3868 H   0  0  0  0  0  0  0  0  0  0  0  0
   -4.1946   -0.7435   -2.0251 H   0  0  0  0  0  0  0  0  0  0  0  0
   -3.2540   -2.1645   -1.4231 H   0  0  0  0  0  0  0  0  0  0  0  0
  1  2  1  0
  1 11  1  0
  1 12  1  0
  1 13  1  0
  2  3  1  0
  2 14  1  0
  3  4  2  0
  3  5  1  0
  5  6  2  3
  5  7  1  0
  6 15  1  0
  6 16  1  0
  7  8  1  0
  7 17  1  0
  8  9  1  0
  8 10  2  0
  9 18  1  0
  9 19  1  0
  9 20  1  0
M  END

> <RosettaParamsInstructions>
M  ROOT 7
M  POLY_N_BB 7
M  POLY_CA_BB 5
M  POLY_C_BB 3
M  POLY_O_BB 4
M  POLY_IGNORE 1 10 9 14 11 12 13 18 19 20
M  POLY_UPPER 2
M  POLY_LOWER 8
M  POLY_CHG 0
M  POLY_PROPERTIES PROTEIN POLYMER ALPHA_AA ALIPHATIC
M  END

$$$$
DHA_new
     RDKit          3D

 20 19  0  0  0  0  0  0  0  0999 V2000
    2.6760   -1.0651    2.5806 C   0  0  0  0  0  0  0  0  0  0  0  0
    1.6906   -0.2367    1.8658 N   0  0  0  0  0  0  0  0  0  0  0  0
    0.5522   -0.8229    1.2989 C   0  0  0  0  0  0  0  0  0  0  0  0
    0.3585   -2.0761    1.3960 O   0  0  0  0  0  0  0  0  0  0  0  0
   -0.4587   -0.0488    0.5782 C   0  0  0  0  0  0  0  0  0  0  0  0
   -0.3305    1.2381    0.4372 C   0  0  0  0  0  0  0  0  0  0  0  0
   -1.5708   -0.7316    0.0429 N   0  0  0  0  0  0  0  0  0  0  0  0
   -2.6516   -0.2348   -0.6720 C   0  0  0  0  0  0  0  0  0  0  0  0
   -3.7388   -1.1713   -1.1502 C   0  0  0  0  0  0  0  0  0  0  0  0
   -2.7987    0.9702   -0.9601 O   0  0  0  0  0  0  0  0  0  0  0  0
    2.7056   -0.7657    3.6513 H   0  0  0  0  0  0  0  0  0  0  0  0
    2.3815   -2.1463    2.5367 H   0  0  0  0  0  0  0  0  0  0  0  0
    3.6757   -0.9447    2.1144 H   0  0  0  0  0  0  0  0  0  0  0  0
    1.8832    0.7646    1.8103 H   0  0  0  0  0  0  0  0  0  0  0  0
    0.5438    1.7616    0.8603 H   0  0  0  0  0  0  0  0  0  0  0  0
   -1.0145    1.8932   -0.0724 H   0  0  0  0  0  0  0  0  0  0  0  0
   -1.5837   -1.7876    0.2126 H   0  0  0  0  0  0  0  0  0  0  0  0
   -3.3158   -2.1815   -1.3424 H   0  0  0  0  0  0  0  0  0  0  0  0
   -4.1290   -0.7939   -2.0997 H   0  0  0  0  0  0  0  0  0  0  0  0
   -4.4815   -1.2728   -0.3474 H   0  0  0  0  0  0  0  0  0  0  0  0
  1  2  1  0
  1 11  1  0
  1 12  1  0
  1 13  1  0
  2  3  1  0
  2 14  1  0
  3  4  2  0
  3  5  1  0
  5  6  2  3
  5  7  1  0
  6 15  1  0
  6 16  1  0
  7  8  1  0
  7 17  1  0
  8  9  1  0
  8 10  2  0
  9 18  1  0
  9 19  1  0
  9 20  1  0
M  END

> <RosettaParamsInstructions>
M  ROOT 7
M  POLY_N_BB 7
M  POLY_CA_BB 5
M  POLY_C_BB 3
M  POLY_O_BB 4
M  POLY_IGNORE 1 10 9 14 11 12 13 18 19 20
M  POLY_UPPER 2
M  POLY_LOWER 8
M  POLY_CHG 0
M  POLY_PROPERTIES PROTEIN POLYMER ALPHA_AA ALIPHATIC
M  END

$$$$
